xflr5 v6.59

 Calculated polar for: WORTMANN FX 63-137 AIRFOIL

 1 1 Reynolds number fixed          Mach number fixed         

 xtrf =   1.000 (top)        1.000 (bottom)
 Mach =   0.000     Re =     1.800 e 6     Ncrit =   9.000

  alpha     CL        CD       CDp       Cm    Top Xtr Bot Xtr   Cpmin    Chinge    XCp    
 ------- -------- --------- --------- -------- ------- ------- -------- --------- ---------
 -13.700  -0.5865   0.06326   0.06149  -0.0989  0.9937  0.0068  -10.0129   0.0000   0.0000   0.0000   0.0561
 -13.600  -0.6165   0.05455   0.05265  -0.1069  0.9921  0.0068  -10.5583   0.0000   0.0000   0.0000   0.0522
 -13.500  -0.6310   0.04855   0.04655  -0.1137  0.9909  0.0068  -10.8412   0.0000   0.0000   0.0000   0.0461
 -13.400  -0.6405   0.04450   0.04242  -0.1180  0.9882  0.0068  -10.9968   0.0000   0.0000   0.0000   0.0425
 -13.300  -0.6459   0.04089   0.03873  -0.1226  0.9853  0.0068  -11.0989   0.0000   0.0000   0.0000   0.0374
 -13.100  -0.6534   0.03530   0.03299  -0.1295  0.9762  0.0068  -11.2069   0.0000   0.0000   0.0000   0.0298
 -13.000  -0.6570   0.03311   0.03075  -0.1319  0.9690  0.0068  -11.2341   0.0000   0.0000   0.0000   0.0277
 -12.800  -0.6422   0.02812   0.02555  -0.1419  0.9565  0.0068  -11.1361   0.0000   0.0000   0.0000   0.0077
 -12.700  -0.6237   0.02565   0.02296  -0.1491  0.9518  0.0068  -11.0008   0.0000   0.0000   0.0000  -0.0107
 -12.600  -0.5990   0.02338   0.02055  -0.1571  0.9481  0.0068  -10.8139   0.0000   0.0000   0.0000  -0.0343
 -12.500  -0.5712   0.02142   0.01845  -0.1650  0.9427  0.0068  -10.5952   0.0000   0.0000   0.0000  -0.0616
 -12.400  -0.5419   0.01974   0.01662  -0.1726  0.9350  0.0068  -10.3571   0.0000   0.0000   0.0000  -0.0920
 -12.300  -0.5168   0.01847   0.01519  -0.1785  0.9229  0.0068  -10.1384   0.0000   0.0000   0.0000  -0.1196
 -12.200  -0.4989   0.01760   0.01417  -0.1820  0.9078  0.0068  -9.9610   0.0000   0.0000   0.0000  -0.1395
 -12.100  -0.4869   0.01704   0.01347  -0.1835  0.8929  0.0068  -9.8166   0.0000   0.0000   0.0000  -0.1519
 -12.000  -0.4768   0.01657   0.01289  -0.1844  0.8806  0.0068  -9.6831   0.0000   0.0000   0.0000  -0.1619
 -11.900  -0.4670   0.01614   0.01237  -0.1851  0.8706  0.0068  -9.5511   0.0000   0.0000   0.0000  -0.1715
 -11.800  -0.4574   0.01576   0.01189  -0.1856  0.8591  0.0068  -9.4191   0.0000   0.0000   0.0000  -0.1811
 -11.700  -0.4477   0.01541   0.01144  -0.1860  0.8501  0.0068  -9.2877   0.0000   0.0000   0.0000  -0.1910
 -11.600  -0.4375   0.01506   0.01101  -0.1865  0.8421  0.0068  -9.1510   0.0000   0.0000   0.0000  -0.2020
 -11.500  -0.4278   0.01476   0.01062  -0.1868  0.8335  0.0068  -9.0176   0.0000   0.0000   0.0000  -0.2126
 -11.400  -0.4174   0.01445   0.01024  -0.1872  0.8268  0.0068  -8.8796   0.0000   0.0000   0.0000  -0.2246
 -11.300  -0.4065   0.01416   0.00988  -0.1876  0.8203  0.0068  -8.7385   0.0000   0.0000   0.0000  -0.2381
 -11.200  -0.3960   0.01390   0.00954  -0.1879  0.8122  0.0068  -8.6004   0.0000   0.0000   0.0000  -0.2513
 -11.100  -0.3860   0.01366   0.00923  -0.1881  0.8040  0.0068  -8.4650   0.0000   0.0000   0.0000  -0.2645
 -11.000  -0.3747   0.01341   0.00892  -0.1885  0.7995  0.0067  -8.3221   0.0000   0.0000   0.0000  -0.2807
 -10.900  -0.3634   0.01317   0.00862  -0.1889  0.7948  0.0067  -8.1800   0.0000   0.0000   0.0000  -0.2977
 -10.800  -0.3524   0.01296   0.00834  -0.1892  0.7897  0.0067  -8.0393   0.0000   0.0000   0.0000  -0.3153
 -10.700  -0.3415   0.01276   0.00808  -0.1895  0.7842  0.0067  -7.9003   0.0000   0.0000   0.0000  -0.3336
 -10.600  -0.3305   0.01257   0.00783  -0.1897  0.7784  0.0067  -7.7614   0.0000   0.0000   0.0000  -0.3533
 -10.500  -0.3187   0.01236   0.00758  -0.1901  0.7758  0.0067  -7.6179   0.0000   0.0000   0.0000  -0.3764
 -10.400  -0.3068   0.01217   0.00734  -0.1905  0.7730  0.0067  -7.4749   0.0000   0.0000   0.0000  -0.4014
 -10.300  -0.2951   0.01198   0.00712  -0.1908  0.7692  0.0067  -7.3333   0.0000   0.0000   0.0000  -0.4280
 -10.200  -0.2835   0.01182   0.00690  -0.1911  0.7645  0.0066  -7.1934   0.0000   0.0000   0.0000  -0.4563
 -10.100  -0.2721   0.01166   0.00670  -0.1913  0.7590  0.0066  -7.0558   0.0000   0.0000   0.0000  -0.4861
 -10.000  -0.2610   0.01153   0.00650  -0.1915  0.7528  0.0066  -6.9204   0.0000   0.0000   0.0000  -0.5176
  -9.900  -0.2495   0.01138   0.00632  -0.1917  0.7485  0.0066  -6.7831   0.0000   0.0000   0.0000  -0.5536
  -9.800  -0.2376   0.01123   0.00613  -0.1921  0.7454  0.0066  -6.6448   0.0000   0.0000   0.0000  -0.5945
  -9.700  -0.2257   0.01109   0.00595  -0.1923  0.7422  0.0066  -6.5163   0.0000   0.0000   0.0000  -0.6396
  -9.600  -0.2139   0.01095   0.00578  -0.1926  0.7389  0.0066  -6.3997   0.0000   0.0000   0.0000  -0.6894
  -9.500  -0.2021   0.01082   0.00562  -0.1929  0.7357  0.0065  -6.2838   0.0000   0.0000   0.0000  -0.7450
  -9.400  -0.1903   0.01069   0.00545  -0.1932  0.7327  0.0065  -6.1687   0.0000   0.0000   0.0000  -0.8073
  -9.300  -0.1786   0.01055   0.00528  -0.1934  0.7294  0.0065  -6.0553   0.0000   0.0000   0.0000  -0.8778
  -9.200  -0.1667   0.01042   0.00512  -0.1937  0.7265  0.0065  -5.9404   0.0000   0.0000   0.0000  -0.9592
  -9.100  -0.1548   0.01029   0.00498  -0.1940  0.7237  0.0065  -5.8259   0.0000   0.0000   0.0000  -1.0535
  -9.000  -0.1428   0.01017   0.00484  -0.1943  0.7211  0.0065  -5.7119   0.0000   0.0000   0.0000  -1.1641
  -8.900  -0.1305   0.01005   0.00470  -0.1946  0.7203  0.0065  -5.5974   0.0000   0.0000   0.0000  -1.2983
  -8.800  -0.1183   0.00993   0.00457  -0.1949  0.7193  0.0065  -5.4840   0.0000   0.0000   0.0000  -1.4601
  -8.700  -0.1061   0.00982   0.00445  -0.1952  0.7177  0.0064  -5.3716   0.0000   0.0000   0.0000  -1.6582
  -8.600  -0.0940   0.00972   0.00433  -0.1954  0.7151  0.0064  -5.2605   0.0000   0.0000   0.0000  -1.9059
  -8.500  -0.0820   0.00964   0.00421  -0.1956  0.7106  0.0064  -5.1511   0.0000   0.0000   0.0000  -2.2213
  -8.400  -0.0705   0.00957   0.00410  -0.1958  0.7031  0.0064  -5.0443   0.0000   0.0000   0.0000  -2.6265
  -8.300  -0.0595   0.00954   0.00401  -0.1958  0.6931  0.0064  -4.9410   0.0000   0.0000   0.0000  -3.1557
  -8.200  -0.0478   0.00947   0.00390  -0.1959  0.6870  0.0064  -4.8353   0.0000   0.0000   0.0000  -3.9865
  -8.100  -0.0361   0.00941   0.00381  -0.1961  0.6814  0.0064  -4.7303   0.0000   0.0000   0.0000  -5.3599
  -8.000  -0.0246   0.00936   0.00371  -0.1962  0.6755  0.0064  -4.6267   0.0000   0.0000   0.0000  -8.0062
  -7.900  -0.0131   0.00932   0.00362  -0.1963  0.6694  0.0064  -4.5244   0.0000   0.0000   0.0000  -15.2558
  -7.800  -0.0015   0.00927   0.00354  -0.1965  0.6632  0.0064  -4.4223   0.0000   0.0000   0.0000  -138.0949
  -7.700   0.0105   0.00920   0.00345  -0.1967  0.6600  0.0064  -4.3194   0.0000   0.0000   0.0000  19.5283
  -7.600   0.0227   0.00913   0.00337  -0.1969  0.6587  0.0065  -4.2166   0.0000   0.0000   0.0000   9.1967
  -7.500   0.0349   0.00907   0.00329  -0.1971  0.6573  0.0065  -4.1147   0.0000   0.0000   0.0000   6.0802
  -7.400   0.0470   0.00900   0.00321  -0.1974  0.6555  0.0065  -4.0226   0.0000   0.0000   0.0000   4.5779
  -7.300   0.0591   0.00894   0.00313  -0.1976  0.6530  0.0065  -3.9468   0.0000   0.0000   0.0000   3.6947
  -7.200   0.0710   0.00889   0.00306  -0.1978  0.6495  0.0065  -3.8716   0.0000   0.0000   0.0000   3.1150
  -7.100   0.0828   0.00885   0.00300  -0.1979  0.6437  0.0065  -3.7976   0.0000   0.0000   0.0000   2.7086
  -7.000   0.0943   0.00883   0.00294  -0.1980  0.6362  0.0065  -3.7249   0.0000   0.0000   0.0000   2.4099
  -6.900   0.1060   0.00880   0.00286  -0.1981  0.6313  0.0065  -3.6517   0.0000   0.0000   0.0000   2.1717
  -6.800   0.1178   0.00876   0.00280  -0.1983  0.6268  0.0065  -3.5785   0.0000   0.0000   0.0000   1.9794
  -6.700   0.1297   0.00872   0.00275  -0.1984  0.6230  0.0065  -3.5052   0.0000   0.0000   0.0000   1.8215
  -6.600   0.1415   0.00869   0.00269  -0.1986  0.6190  0.0065  -3.4321   0.0000   0.0000   0.0000   1.6905
  -6.500   0.1533   0.00866   0.00265  -0.1987  0.6149  0.0065  -3.3591   0.0000   0.0000   0.0000   1.5801
  -6.400   0.1650   0.00864   0.00260  -0.1989  0.6105  0.0065  -3.2861   0.0000   0.0000   0.0000   1.4861
  -6.300   0.1766   0.00862   0.00256  -0.1990  0.6058  0.0065  -3.2122   0.0000   0.0000   0.0000   1.4048
  -6.200   0.1882   0.00861   0.00253  -0.1991  0.6007  0.0065  -3.1342   0.0000   0.0000   0.0000   1.3334
  -6.100   0.2000   0.00859   0.00251  -0.1992  0.5971  0.0065  -3.0489   0.0000   0.0000   0.0000   1.2700
  -6.000   0.2115   0.00861   0.00255  -0.1992  0.5957  0.0065  -2.9413   0.0000   0.0000   0.0000   1.2145
  -5.900   0.2224   0.00867   0.00267  -0.1992  0.5939  0.0065  -2.8187   0.0000   0.0000   0.0000   1.1662
  -5.800   0.2340   0.00867   0.00269  -0.1993  0.5914  0.0065  -2.7338   0.0000   0.0000   0.0000   1.1209
  -5.700   0.2457   0.00866   0.00267  -0.1994  0.5872  0.0065  -2.6618   0.0000   0.0000   0.0000   1.0795
  -5.600   0.2571   0.00866   0.00266  -0.1994  0.5794  0.0065  -2.5932   0.0000   0.0000   0.0000   1.0425
  -5.500   0.2680   0.00871   0.00265  -0.1994  0.5670  0.0065  -2.5285   0.0000   0.0000   0.0000   1.0100
  -5.400   0.2795   0.00871   0.00262  -0.1995  0.5608  0.0065  -2.4635   0.0000   0.0000   0.0000   0.9786
  -5.300   0.2911   0.00870   0.00260  -0.1996  0.5557  0.0065  -2.3998   0.0000   0.0000   0.0000   0.9496
  -5.200   0.3028   0.00869   0.00257  -0.1997  0.5508  0.0065  -2.3377   0.0000   0.0000   0.0000   0.9228
  -5.100   0.3143   0.00870   0.00254  -0.1998  0.5453  0.0065  -2.2772   0.0000   0.0000   0.0000   0.8981
  -5.000   0.3258   0.00870   0.00252  -0.1999  0.5394  0.0065  -2.2178   0.0000   0.0000   0.0000   0.8752
  -4.900   0.3375   0.00869   0.00249  -0.2000  0.5335  0.0065  -2.1590   0.0000   0.0000   0.0000   0.8536
  -4.800   0.3495   0.00866   0.00245  -0.2002  0.5313  0.0065  -2.1005   0.0000   0.0000   0.0000   0.8332
  -4.700   0.3615   0.00863   0.00242  -0.2003  0.5293  0.0066  -2.0426   0.0000   0.0000   0.0000   0.8141
  -4.600   0.3734   0.00861   0.00239  -0.2005  0.5265  0.0066  -1.9855   0.0000   0.0000   0.0000   0.7963
  -4.500   0.3851   0.00860   0.00237  -0.2006  0.5213  0.0067  -1.9292   0.0000   0.0000   0.0000   0.7797
  -4.400   0.3962   0.00864   0.00235  -0.2006  0.5110  0.0067  -1.8744   0.0000   0.0000   0.0000   0.7647
  -4.300   0.4068   0.00872   0.00237  -0.2005  0.4975  0.0068  -1.8195   0.0000   0.0000   0.0000   0.7508
  -4.200   0.4180   0.00875   0.00238  -0.2005  0.4916  0.0070  -1.7596   0.0000   0.0000   0.0000   0.7371
  -4.000   0.4456   0.00844   0.00195  -0.2017  0.4795  0.0149  -1.8762   0.0000   0.0000   0.0000   0.7092
  -3.900   0.4562   0.00853   0.00202  -0.2016  0.4730  0.0155  -1.7785   0.0000   0.0000   0.0000   0.6981
  -3.800   0.4671   0.00858   0.00210  -0.2015  0.4674  0.0160  -1.6825   0.0000   0.0000   0.0000   0.6874
  -3.700   0.4782   0.00862   0.00218  -0.2015  0.4657  0.0164  -1.5914   0.0000   0.0000   0.0000   0.6770
  -3.600   0.4893   0.00866   0.00227  -0.2015  0.4638  0.0167  -1.5045   0.0000   0.0000   0.0000   0.6671
  -3.100   0.5455   0.00883   0.00233  -0.2018  0.4251  0.0206  -1.2206   0.0000   0.0000   0.0000   0.6237
  -3.000   0.5572   0.00883   0.00230  -0.2019  0.4201  0.0206  -1.1762   0.0000   0.0000   0.0000   0.6159
  -2.900   0.5688   0.00884   0.00227  -0.2020  0.4150  0.0206  -1.1321   0.0000   0.0000   0.0000   0.6085
  -2.800   0.5805   0.00886   0.00224  -0.2021  0.4091  0.0206  -1.0882   0.0000   0.0000   0.0000   0.6013
  -2.700   0.5923   0.00885   0.00220  -0.2023  0.4037  0.0205  -1.0441   0.0000   0.0000   0.0000   0.5944
  -2.600   0.6043   0.00884   0.00217  -0.2024  0.4016  0.0203  -0.9999   0.0000   0.0000   0.0000   0.5876
  -2.500   0.6163   0.00882   0.00214  -0.2026  0.4002  0.0201  -0.9559   0.0000   0.0000   0.0000   0.5811
  -2.400   0.6282   0.00880   0.00211  -0.2027  0.3984  0.0198  -0.9118   0.0000   0.0000   0.0000   0.5749
  -2.300   0.6401   0.00880   0.00208  -0.2029  0.3960  0.0192  -0.9008   0.0000   0.0000   0.0000   0.5689
  -2.200   0.6519   0.00880   0.00206  -0.2030  0.3930  0.0192  -0.9096   0.0000   0.0000   0.0000   0.5632
  -2.100   0.6623   0.00891   0.00209  -0.2029  0.3763  0.0191  -0.9178   0.0000   0.0000   0.0000   0.5579
  -2.000   0.6734   0.00897   0.00209  -0.2029  0.3670  0.0191  -0.9262   0.0000   0.0000   0.0000   0.5527
  -1.900   0.6847   0.00901   0.00209  -0.2029  0.3609  0.0191  -0.9350   0.0000   0.0000   0.0000   0.5476
  -1.800   0.6956   0.00908   0.00210  -0.2029  0.3534  0.0191  -0.9437   0.0000   0.0000   0.0000   0.5427
  -1.700   0.7066   0.00915   0.00211  -0.2029  0.3438  0.0190  -0.9523   0.0000   0.0000   0.0000   0.5379
  -1.600   0.7181   0.00917   0.00210  -0.2029  0.3382  0.0191  -0.9613   0.0000   0.0000   0.0000   0.5333
  -1.500   0.7297   0.00918   0.00209  -0.2030  0.3353  0.0194  -0.9708   0.0000   0.0000   0.0000   0.5287
  -1.400   0.7412   0.00920   0.00209  -0.2031  0.3308  0.0197  -0.9808   0.0000   0.0000   0.0000   0.5243
  -1.300   0.7503   0.00943   0.00218  -0.2027  0.3039  0.0200  -0.9930   0.0000   0.0000   0.0000   0.5204
  -1.200   0.7610   0.00952   0.00221  -0.2027  0.2948  0.0203  -0.9999   0.0000   0.0000   0.0000   0.5163
  -1.100   0.7717   0.00960   0.00223  -0.2026  0.2856  0.0205  -1.0099   0.0000   0.0000   0.0000   0.5124
  -1.000   0.7831   0.00964   0.00225  -0.2026  0.2787  0.0206  -1.0201   0.0000   0.0000   0.0000   0.5085
  -0.900   0.7947   0.00965   0.00225  -0.2027  0.2772  0.0206  -1.0308   0.0000   0.0000   0.0000   0.5046
  -0.800   0.8063   0.00966   0.00225  -0.2028  0.2756  0.0205  -1.0415   0.0000   0.0000   0.0000   0.5009
  -0.700   0.8178   0.00968   0.00226  -0.2029  0.2734  0.0204  -1.0523   0.0000   0.0000   0.0000   0.4973
  -0.600   0.8293   0.00970   0.00227  -0.2030  0.2720  0.0203  -1.0630   0.0000   0.0000   0.0000   0.4938
  -0.500   0.8388   0.00988   0.00237  -0.2027  0.2513  0.0202  -1.0775   0.0000   0.0000   0.0000   0.4905
  -0.400   0.8498   0.00994   0.00240  -0.2027  0.2463  0.0201  -1.0874   0.0000   0.0000   0.0000   0.4872
  -0.300   0.8609   0.01000   0.00243  -0.2026  0.2424  0.0200  -1.0957   0.0000   0.0000   0.0000   0.4840
  -0.200   0.8716   0.01008   0.00248  -0.2026  0.2370  0.0200  -1.1007   0.0000   0.0000   0.0000   0.4808
  -0.100   0.8822   0.01017   0.00253  -0.2025  0.2289  0.0199  -1.1040   0.0000   0.0000   0.0000   0.4778
   0.000   0.8932   0.01023   0.00256  -0.2025  0.2219  0.0198  -1.1116   0.0000   0.0000   0.0000   0.4748
   0.100   0.9045   0.01025   0.00259  -0.2025  0.2201  0.0198  -1.1221   0.0000   0.0000   0.0000   0.4719
   0.200   0.9159   0.01028   0.00261  -0.2025  0.2184  0.0198  -1.1328   0.0000   0.0000   0.0000   0.4690
   0.300   0.9271   0.01032   0.00264  -0.2025  0.2159  0.0197  -1.1456   0.0000   0.0000   0.0000   0.4662
   0.400   0.9378   0.01040   0.00270  -0.2025  0.2079  0.0197  -1.1598   0.0000   0.0000   0.0000   0.4635
   0.500   0.9474   0.01057   0.00280  -0.2022  0.1940  0.0198  -1.1741   0.0000   0.0000   0.0000   0.4608
   0.600   0.9582   0.01063   0.00285  -0.2022  0.1907  0.0198  -1.1850   0.0000   0.0000   0.0000   0.4582
   0.700   0.9691   0.01070   0.00290  -0.2021  0.1874  0.0200  -1.1944   0.0000   0.0000   0.0000   0.4557
   0.800   0.9798   0.01077   0.00295  -0.2020  0.1841  0.0202  -1.2026   0.0000   0.0000   0.0000   0.4532
   0.900   0.9906   0.01084   0.00300  -0.2020  0.1808  0.0209  -1.2113   0.0000   0.0000   0.0000   0.4507
   1.000   1.0019   0.01088   0.00309  -0.2020  0.1779  0.0347  -1.2221   0.0000   0.0000   0.0000   0.4483
   1.100   1.0129   0.01093   0.00313  -0.2020  0.1741  0.0368  -1.2336   0.0000   0.0000   0.0000   0.4460
   1.200   1.0239   0.01097   0.00317  -0.2020  0.1709  0.0377  -1.2480   0.0000   0.0000   0.0000   0.4437
   1.300   1.0351   0.01101   0.00321  -0.2020  0.1699  0.0382  -1.2628   0.0000   0.0000   0.0000   0.4414
   1.400   1.0462   0.01104   0.00325  -0.2020  0.1692  0.0390  -1.2777   0.0000   0.0000   0.0000   0.4392
   1.500   1.0573   0.01108   0.00329  -0.2020  0.1683  0.0406  -1.2927   0.0000   0.0000   0.0000   0.4371
   1.600   1.0684   0.01112   0.00332  -0.2020  0.1673  0.0426  -1.3078   0.0000   0.0000   0.0000   0.4349
   1.700   1.0794   0.01116   0.00337  -0.2020  0.1657  0.0451  -1.3231   0.0000   0.0000   0.0000   0.4329
   1.800   1.0903   0.01121   0.00341  -0.2020  0.1638  0.0476  -1.3385   0.0000   0.0000   0.0000   0.4308
   1.900   1.0992   0.01143   0.00357  -0.2016  0.1463  0.0495  -1.3577   0.0000   0.0000   0.0000   0.4288
   2.000   1.1098   0.01150   0.00364  -0.2015  0.1437  0.0516  -1.3711   0.0000   0.0000   0.0000   0.4269
   2.100   1.1207   0.01157   0.00370  -0.2015  0.1410  0.0639  -1.3840   0.0000   0.0000   0.0000   0.4249
   2.200   1.1311   0.01165   0.00377  -0.2014  0.1384  0.0664  -1.3953   0.0000   0.0000   0.0000   0.4230
   2.300   1.1417   0.01173   0.00384  -0.2013  0.1358  0.0738  -1.4062   0.0000   0.0000   0.0000   0.4212
   2.400   1.1547   0.01170   0.00393  -0.2018  0.1327  0.1508  -1.4200   0.0000   0.0000   0.0000   0.4195
   2.500   1.1672   0.01169   0.00399  -0.2022  0.1293  0.2013  -1.4389   0.0000   0.0000   0.0000   0.4179
   2.600   1.1793   0.01168   0.00406  -0.2026  0.1261  0.2369  -1.4576   0.0000   0.0000   0.0000   0.4162
   2.700   1.1906   0.01172   0.00412  -0.2026  0.1241  0.2541  -1.4757   0.0000   0.0000   0.0000   0.4145
   2.800   1.2026   0.01172   0.00418  -0.2029  0.1236  0.2827  -1.4950   0.0000   0.0000   0.0000   0.4129
   2.900   1.2143   0.01173   0.00424  -0.2031  0.1229  0.3093  -1.5153   0.0000   0.0000   0.0000   0.4113
   3.000   1.2260   0.01175   0.00431  -0.2033  0.1219  0.3349  -1.5381   0.0000   0.0000   0.0000   0.4097
   3.100   1.2375   0.01178   0.00440  -0.2035  0.1191  0.3666  -1.5609   0.0000   0.0000   0.0000   0.4082
   3.200   1.2458   0.01205   0.00460  -0.2030  0.1022  0.3775  -1.5807   0.0000   0.0000   0.0000   0.4066
   3.300   1.2559   0.01218   0.00471  -0.2029  0.0979  0.3941  -1.6023   0.0000   0.0000   0.0000   0.4050
   3.400   1.2659   0.01230   0.00483  -0.2028  0.0929  0.4089  -1.6238   0.0000   0.0000   0.0000   0.4035
   3.500   1.2765   0.01239   0.00494  -0.2027  0.0874  0.4263  -1.6456   0.0000   0.0000   0.0000   0.4020
   3.600   1.2869   0.01247   0.00502  -0.2026  0.0843  0.4337  -1.6681   0.0000   0.0000   0.0000   0.4005
   3.700   1.2975   0.01253   0.00511  -0.2026  0.0835  0.4435  -1.6931   0.0000   0.0000   0.0000   0.3990
   3.800   1.3081   0.01260   0.00520  -0.2025  0.0824  0.4537  -1.7176   0.0000   0.0000   0.0000   0.3975
   3.900   1.3188   0.01265   0.00527  -0.2024  0.0836  0.4534  -1.7419   0.0000   0.0000   0.0000   0.3961
   4.000   1.3294   0.01271   0.00534  -0.2023  0.0834  0.4625  -1.7753   0.0000   0.0000   0.0000   0.3946
   4.100   1.3398   0.01278   0.00543  -0.2022  0.0825  0.4697  -1.8086   0.0000   0.0000   0.0000   0.3932
   4.200   1.3503   0.01285   0.00552  -0.2022  0.0811  0.4814  -1.8423   0.0000   0.0000   0.0000   0.3919
   4.300   1.3604   0.01295   0.00563  -0.2020  0.0782  0.4902  -1.8754   0.0000   0.0000   0.0000   0.3905
   4.400   1.3683   0.01321   0.00583  -0.2015  0.0662  0.4953  -1.9052   0.0000   0.0000   0.0000   0.3891
   4.500   1.3778   0.01333   0.00593  -0.2012  0.0644  0.4988  -1.9378   0.0000   0.0000   0.0000   0.3877
   4.600   1.3874   0.01345   0.00604  -0.2009  0.0626  0.5041  -1.9704   0.0000   0.0000   0.0000   0.3864
   4.700   1.3974   0.01356   0.00615  -0.2008  0.0608  0.5159  -2.0039   0.0000   0.0000   0.0000   0.3851
   4.800   1.4073   0.01366   0.00626  -0.2006  0.0588  0.5265  -2.0373   0.0000   0.0000   0.0000   0.3838
   4.900   1.4169   0.01377   0.00637  -0.2003  0.0567  0.5329  -2.0703   0.0000   0.0000   0.0000   0.3825
   5.000   1.4270   0.01386   0.00649  -0.2002  0.0549  0.5460  -2.1042   0.0000   0.0000   0.0000   0.3812
   5.100   1.4368   0.01396   0.00660  -0.2000  0.0532  0.5548  -2.1379   0.0000   0.0000   0.0000   0.3799
   5.200   1.4465   0.01406   0.00671  -0.1997  0.0517  0.5597  -2.1715   0.0000   0.0000   0.0000   0.3787
   5.300   1.4561   0.01416   0.00681  -0.1995  0.0515  0.5624  -2.2065   0.0000   0.0000   0.0000   0.3774
   5.400   1.4657   0.01426   0.00692  -0.1992  0.0511  0.5647  -2.2416   0.0000   0.0000   0.0000   0.3762
   5.500   1.4752   0.01436   0.00703  -0.1989  0.0506  0.5696  -2.2768   0.0000   0.0000   0.0000   0.3750
   5.600   1.4847   0.01447   0.00716  -0.1987  0.0498  0.5765  -2.3121   0.0000   0.0000   0.0000   0.3738
   5.700   1.4941   0.01459   0.00729  -0.1984  0.0488  0.5830  -2.3474   0.0000   0.0000   0.0000   0.3726
   5.800   1.5033   0.01471   0.00742  -0.1981  0.0476  0.5896  -2.3824   0.0000   0.0000   0.0000   0.3714
   5.900   1.5122   0.01484   0.00755  -0.1977  0.0464  0.5955  -2.4172   0.0000   0.0000   0.0000   0.3703
   6.000   1.5211   0.01498   0.00770  -0.1973  0.0451  0.6047  -2.4522   0.0000   0.0000   0.0000   0.3691
   6.100   1.5287   0.01520   0.00795  -0.1968  0.0395  0.6182  -2.4861   0.0000   0.0000   0.0000   0.3679
   6.200   1.5376   0.01533   0.00808  -0.1964  0.0381  0.6248  -2.5211   0.0000   0.0000   0.0000   0.3667
   6.300   1.5464   0.01545   0.00820  -0.1960  0.0378  0.6287  -2.5568   0.0000   0.0000   0.0000   0.3656
   6.400   1.5553   0.01557   0.00832  -0.1956  0.0374  0.6345  -2.5927   0.0000   0.0000   0.0000   0.3645
   6.500   1.5640   0.01568   0.00845  -0.1952  0.0369  0.6411  -2.6284   0.0000   0.0000   0.0000   0.3634
   6.600   1.5721   0.01580   0.00859  -0.1947  0.0364  0.6465  -2.6634   0.0000   0.0000   0.0000   0.3622
   6.700   1.5796   0.01593   0.00872  -0.1940  0.0358  0.6513  -2.6975   0.0000   0.0000   0.0000   0.3611
   6.800   1.5869   0.01607   0.00887  -0.1933  0.0348  0.6557  -2.7319   0.0000   0.0000   0.0000   0.3599
   6.900   1.5938   0.01624   0.00903  -0.1926  0.0332  0.6592  -2.7664   0.0000   0.0000   0.0000   0.3587
   7.100   1.6016   0.01690   0.00961  -0.1901  0.0224  0.6694  -2.8224   0.0000   0.0000   0.0000   0.3562
   7.200   1.6073   0.01715   0.00984  -0.1891  0.0195  0.6745  -2.8417   0.0000   0.0000   0.0000   0.3551
   7.300   1.6143   0.01732   0.01002  -0.1884  0.0171  0.6792  -2.8695   0.0000   0.0000   0.0000   0.3540
   7.400   1.6213   0.01749   0.01020  -0.1877  0.0163  0.6835  -2.9015   0.0000   0.0000   0.0000   0.3529
   7.600   1.6255   0.01837   0.01105  -0.1847  0.0046  0.6899  -2.9562   0.0000   0.0000   0.0000   0.3503
   7.700   1.6319   0.01858   0.01127  -0.1839  0.0043  0.6937  -2.9891   0.0000   0.0000   0.0000   0.3492
   7.800   1.6385   0.01880   0.01151  -0.1832  0.0041  0.6997  -3.0226   0.0000   0.0000   0.0000   0.3482
   7.900   1.6449   0.01902   0.01174  -0.1824  0.0039  0.7051  -3.0559   0.0000   0.0000   0.0000   0.3471
   8.000   1.6514   0.01924   0.01198  -0.1817  0.0037  0.7103  -3.0886   0.0000   0.0000   0.0000   0.3461
   8.100   1.6581   0.01945   0.01219  -0.1810  0.0035  0.7152  -3.1210   0.0000   0.0000   0.0000   0.3450
   8.200   1.6648   0.01966   0.01241  -0.1804  0.0032  0.7198  -3.1528   0.0000   0.0000   0.0000   0.3440
   8.400   1.6784   0.02007   0.01286  -0.1791  0.0024  0.7343  -3.2169   0.0000   0.0000   0.0000   0.3420
   8.500   1.6850   0.02029   0.01309  -0.1784  0.0021  0.7417  -3.2489   0.0000   0.0000   0.0000   0.3410
   8.600   1.6908   0.02055   0.01339  -0.1776  0.0026  0.7482  -3.2819   0.0000   0.0000   0.0000   0.3400
   8.700   1.6974   0.02077   0.01364  -0.1770  0.0023  0.7562  -3.3144   0.0000   0.0000   0.0000   0.3391
   8.800   1.7041   0.02100   0.01389  -0.1764  0.0018  0.7653  -3.3471   0.0000   0.0000   0.0000   0.3381
   8.900   1.7099   0.02128   0.01420  -0.1756  0.0014  0.7738  -3.3783   0.0000   0.0000   0.0000   0.3371
   9.000   1.7159   0.02156   0.01450  -0.1749  0.0014  0.7831  -3.4105   0.0000   0.0000   0.0000   0.3362
   9.100   1.7220   0.02183   0.01481  -0.1742  0.0014  0.7943  -3.4432   0.0000   0.0000   0.0000   0.3352
   9.200   1.7280   0.02212   0.01512  -0.1735  0.0014  0.8042  -3.4756   0.0000   0.0000   0.0000   0.3343
   9.300   1.7340   0.02241   0.01546  -0.1729  0.0014  0.8165  -3.5081   0.0000   0.0000   0.0000   0.3334
   9.400   1.7397   0.02272   0.01580  -0.1722  0.0014  0.8288  -3.5401   0.0000   0.0000   0.0000   0.3325
   9.500   1.7457   0.02302   0.01615  -0.1715  0.0014  0.8446  -3.5727   0.0000   0.0000   0.0000   0.3316
   9.600   1.7517   0.02332   0.01650  -0.1709  0.0014  0.8651  -3.6053   0.0000   0.0000   0.0000   0.3307
  10.500   1.7896   0.02669   0.02023  -0.1631  0.0014  1.0000  -3.9227   0.0000   0.0000   0.0000   0.3225
  10.600   1.7934   0.02718   0.02074  -0.1623  0.0014  1.0000  -3.9586   0.0000   0.0000   0.0000   0.3216
  10.700   1.7975   0.02767   0.02125  -0.1615  0.0014  1.0000  -3.9952   0.0000   0.0000   0.0000   0.3208
  10.800   1.8016   0.02816   0.02176  -0.1608  0.0015  1.0000  -4.0320   0.0000   0.0000   0.0000   0.3200
  10.900   1.8052   0.02870   0.02233  -0.1600  0.0015  1.0000  -4.0675   0.0000   0.0000   0.0000   0.3192
  11.000   1.8087   0.02926   0.02292  -0.1593  0.0015  1.0000  -4.1022   0.0000   0.0000   0.0000   0.3184
  11.100   1.8123   0.02981   0.02350  -0.1586  0.0016  1.0000  -4.1381   0.0000   0.0000   0.0000   0.3176
  11.200   1.8161   0.03036   0.02407  -0.1579  0.0016  1.0000  -4.1746   0.0000   0.0000   0.0000   0.3169
  11.300   1.8193   0.03097   0.02470  -0.1571  0.0016  1.0000  -4.2095   0.0000   0.0000   0.0000   0.3161
  11.400   1.8223   0.03159   0.02535  -0.1564  0.0017  1.0000  -4.2446   0.0000   0.0000   0.0000   0.3153
  11.500   1.8257   0.03220   0.02598  -0.1557  0.0017  1.0000  -4.2808   0.0000   0.0000   0.0000   0.3146
  11.600   1.8292   0.03280   0.02660  -0.1551  0.0018  1.0000  -4.3175   0.0000   0.0000   0.0000   0.3139
  11.700   1.8324   0.03343   0.02725  -0.1544  0.0018  1.0000  -4.3536   0.0000   0.0000   0.0000   0.3131
  11.800   1.8350   0.03413   0.02797  -0.1537  0.0018  1.0000  -4.4167   0.0000   0.0000   0.0000   0.3124
  11.900   1.8377   0.03482   0.02869  -0.1530  0.0019  1.0000  -4.4819   0.0000   0.0000   0.0000   0.3117
  12.000   1.8406   0.03549   0.02939  -0.1524  0.0020  1.0000  -4.5485   0.0000   0.0000   0.0000   0.3110
  12.100   1.8435   0.03618   0.03010  -0.1517  0.0020  1.0000  -4.6154   0.0000   0.0000   0.0000   0.3103
  12.200   1.8455   0.03696   0.03090  -0.1511  0.0021  1.0000  -4.6776   0.0000   0.0000   0.0000   0.3097
  12.300   1.8473   0.03776   0.03174  -0.1504  0.0021  1.0000  -4.7392   0.0000   0.0000   0.0000   0.3090
  12.400   1.8494   0.03854   0.03254  -0.1498  0.0022  1.0000  -4.8023   0.0000   0.0000   0.0000   0.3083
  12.500   1.8517   0.03932   0.03335  -0.1492  0.0023  1.0000  -4.8654   0.0000   0.0000   0.0000   0.3077
  12.600   1.8538   0.04012   0.03417  -0.1485  0.0024  1.0000  -4.9269   0.0000   0.0000   0.0000   0.3070
  12.700   1.8546   0.04105   0.03514  -0.1479  0.0025  1.0000  -4.9804   0.0000   0.0000   0.0000   0.3064
  12.800   1.8553   0.04199   0.03611  -0.1472  0.0027  1.0000  -5.0294   0.0000   0.0000   0.0000   0.3058
  12.900   1.8591   0.04263   0.03676  -0.1467  0.0031  1.0000  -5.0730   0.0000   0.0000   0.0000   0.3052
  13.000   1.8717   0.04242   0.03647  -0.1468  0.0038  1.0000  -5.1293   0.0000   0.0000   0.0000   0.3044
  13.100   1.8838   0.04226   0.03628  -0.1468  0.0043  1.0000  -5.2087   0.0000   0.0000   0.0000   0.3037
