xflr5 v6.59

 Calculated polar for: WORTMANN FX 63-137 AIRFOIL

 1 1 Reynolds number fixed          Mach number fixed         

 xtrf =   1.000 (top)        1.000 (bottom)
 Mach =   0.000     Re =     4.900 e 6     Ncrit =   9.000

  alpha     CL        CD       CDp       Cm    Top Xtr Bot Xtr   Cpmin    Chinge    XCp    
 ------- -------- --------- --------- -------- ------- ------- -------- --------- ---------
 -16.000  -0.6774   0.05382   0.05176  -0.1391  0.9228  0.0042  -13.6170   0.0000   0.0000   0.0000   0.0142
 -15.900  -0.7150   0.04894   0.04689  -0.1398  0.9457  0.0042  -14.1020   0.0000   0.0000   0.0000   0.0255
 -15.800  -0.7145   0.04378   0.04143  -0.1491  0.8975  0.0042  -14.2338   0.0000   0.0000   0.0000   0.0125
 -15.700  -0.7223   0.04095   0.03847  -0.1521  0.8787  0.0042  -14.3347   0.0000   0.0000   0.0000   0.0112
 -15.600  -0.7251   0.03911   0.03654  -0.1539  0.8607  0.0042  -14.3437   0.0000   0.0000   0.0000   0.0099
 -15.500  -0.7309   0.03687   0.03421  -0.1561  0.8478  0.0042  -14.3955   0.0000   0.0000   0.0000   0.0091
 -15.400  -0.7329   0.03531   0.03257  -0.1575  0.8337  0.0042  -14.3821   0.0000   0.0000   0.0000   0.0082
 -15.300  -0.7354   0.03360   0.03080  -0.1591  0.8250  0.0042  -14.3777   0.0000   0.0000   0.0000   0.0071
 -15.200  -0.7358   0.03231   0.02943  -0.1602  0.8122  0.0042  -14.3374   0.0000   0.0000   0.0000   0.0060
 -15.100  -0.7372   0.03087   0.02793  -0.1616  0.8016  0.0042  -14.3099   0.0000   0.0000   0.0000   0.0050
 -15.000  -0.7362   0.02975   0.02677  -0.1625  0.7953  0.0042  -14.2466   0.0000   0.0000   0.0000   0.0037
 -14.900  -0.7362   0.02849   0.02546  -0.1637  0.7889  0.0042  -14.1985   0.0000   0.0000   0.0000   0.0025
 -14.800  -0.7343   0.02757   0.02450  -0.1644  0.7811  0.0043  -14.1188   0.0000   0.0000   0.0000   0.0013
 -14.700  -0.7333   0.02647   0.02336  -0.1653  0.7769  0.0043  -14.0536   0.0000   0.0000   0.0000  -0.0000
 -14.600  -0.7312   0.02560   0.02246  -0.1659  0.7745  0.0043  -13.9697   0.0000   0.0000   0.0000  -0.0012
 -14.500  -0.7302   0.02473   0.02157  -0.1664  0.7704  0.0043  -13.8960   0.0000   0.0000   0.0000  -0.0019
 -14.400  -0.7271   0.02391   0.02070  -0.1672  0.7623  0.0043  -13.8032   0.0000   0.0000   0.0000  -0.0037
 -14.300  -0.7222   0.02317   0.01991  -0.1682  0.7506  0.0043  -13.6899   0.0000   0.0000   0.0000  -0.0064
 -14.200  -0.7160   0.02236   0.01906  -0.1694  0.7462  0.0043  -13.5673   0.0000   0.0000   0.0000  -0.0101
 -14.100  -0.7089   0.02164   0.01831  -0.1707  0.7421  0.0043  -13.4344   0.0000   0.0000   0.0000  -0.0140
 -14.000  -0.7021   0.02075   0.01735  -0.1723  0.7356  0.0043  -13.3153   0.0000   0.0000   0.0000  -0.0185
 -13.900  -0.6933   0.02013   0.01669  -0.1736  0.7313  0.0043  -13.1637   0.0000   0.0000   0.0000  -0.0235
 -13.800  -0.6837   0.01955   0.01609  -0.1750  0.7276  0.0043  -13.0037   0.0000   0.0000   0.0000  -0.0289
 -13.700  -0.6734   0.01899   0.01551  -0.1764  0.7244  0.0043  -12.8370   0.0000   0.0000   0.0000  -0.0349
 -13.600  -0.6625   0.01848   0.01499  -0.1778  0.7218  0.0044  -12.6639   0.0000   0.0000   0.0000  -0.0414
 -13.500  -0.6510   0.01801   0.01450  -0.1792  0.7207  0.0044  -12.4853   0.0000   0.0000   0.0000  -0.0483
 -13.400  -0.6393   0.01760   0.01408  -0.1805  0.7202  0.0044  -12.3028   0.0000   0.0000   0.0000  -0.0554
 -13.300  -0.6276   0.01727   0.01375  -0.1815  0.7196  0.0044  -12.1186   0.0000   0.0000   0.0000  -0.0624
 -13.200  -0.6164   0.01704   0.01352  -0.1822  0.7185  0.0044  -11.9343   0.0000   0.0000   0.0000  -0.0688
 -13.100  -0.6054   0.01689   0.01338  -0.1826  0.7164  0.0044  -11.7484   0.0000   0.0000   0.0000  -0.0748
  -7.400   0.0470   0.00893   0.00315  -0.1992  0.3372  0.0098  -3.9417   0.0000   0.0000   0.0000   4.6120
  -6.800   0.1202   0.00860   0.00245  -0.2005  0.3066  0.0061  -3.6352   0.0000   0.0000   0.0000   1.9635
  -6.700   0.1320   0.00859   0.00242  -0.2006  0.3030  0.0061  -3.5623   0.0000   0.0000   0.0000   1.8107
  -6.600   0.1437   0.00859   0.00240  -0.2007  0.2994  0.0060  -3.4899   0.0000   0.0000   0.0000   1.6834
  -6.500   0.1554   0.00858   0.00238  -0.2008  0.2957  0.0060  -3.4181   0.0000   0.0000   0.0000   1.5756
  -6.400   0.1671   0.00858   0.00235  -0.2009  0.2918  0.0059  -3.3465   0.0000   0.0000   0.0000   1.4827
  -6.300   0.1789   0.00857   0.00233  -0.2010  0.2878  0.0059  -3.2748   0.0000   0.0000   0.0000   1.4016
  -6.200   0.1908   0.00856   0.00231  -0.2012  0.2833  0.0059  -3.2027   0.0000   0.0000   0.0000   1.3304
  -6.100   0.2026   0.00855   0.00230  -0.2013  0.2797  0.0058  -3.1301   0.0000   0.0000   0.0000   1.2673
  -6.000   0.2145   0.00853   0.00228  -0.2014  0.2784  0.0058  -3.0562   0.0000   0.0000   0.0000   1.2111
  -5.900   0.2264   0.00852   0.00227  -0.2016  0.2778  0.0058  -2.9805   0.0000   0.0000   0.0000   1.1610
  -5.800   0.2382   0.00852   0.00226  -0.2017  0.2771  0.0058  -2.9014   0.0000   0.0000   0.0000   1.1159
  -5.700   0.2482   0.00865   0.00249  -0.2014  0.2763  0.0058  -2.7100   0.0000   0.0000   0.0000   1.0795
  -5.600   0.2599   0.00865   0.00250  -0.2015  0.2752  0.0058  -2.6368   0.0000   0.0000   0.0000   1.0421
  -5.500   0.2718   0.00863   0.00248  -0.2017  0.2750  0.0057  -2.5692   0.0000   0.0000   0.0000   1.0076
  -5.300   0.2942   0.00872   0.00249  -0.2017  0.2495  0.0056  -2.4472   0.0000   0.0000   0.0000   0.9496
  -5.200   0.3060   0.00872   0.00247  -0.2018  0.2465  0.0055  -2.3870   0.0000   0.0000   0.0000   0.9227
  -5.100   0.3178   0.00871   0.00245  -0.2019  0.2436  0.0055  -2.3284   0.0000   0.0000   0.0000   0.8979
  -5.000   0.3295   0.00871   0.00242  -0.2020  0.2407  0.0054  -2.2713   0.0000   0.0000   0.0000   0.8749
  -4.900   0.3413   0.00870   0.00240  -0.2022  0.2378  0.0054  -2.2155   0.0000   0.0000   0.0000   0.8534
  -4.800   0.3532   0.00870   0.00237  -0.2023  0.2348  0.0053  -2.1609   0.0000   0.0000   0.0000   0.8333
  -4.700   0.3651   0.00868   0.00234  -0.2024  0.2318  0.0053  -2.1074   0.0000   0.0000   0.0000   0.8144
  -4.600   0.3770   0.00867   0.00231  -0.2026  0.2287  0.0052  -2.0552   0.0000   0.0000   0.0000   0.7967
  -4.500   0.3890   0.00865   0.00228  -0.2027  0.2252  0.0052  -2.0044   0.0000   0.0000   0.0000   0.7801
  -4.400   0.4010   0.00863   0.00224  -0.2029  0.2224  0.0051  -1.9556   0.0000   0.0000   0.0000   0.7644
  -4.300   0.4131   0.00861   0.00221  -0.2031  0.2218  0.0051  -1.9074   0.0000   0.0000   0.0000   0.7495
  -4.200   0.4251   0.00859   0.00218  -0.2032  0.2214  0.0051  -1.8610   0.0000   0.0000   0.0000   0.7356
  -4.100   0.4372   0.00856   0.00215  -0.2034  0.2209  0.0050  -1.8170   0.0000   0.0000   0.0000   0.7223
  -4.000   0.4498   0.00851   0.00206  -0.2037  0.2204  0.0050  -1.8201   0.0000   0.0000   0.0000   0.7095
  -3.900   0.4619   0.00849   0.00203  -0.2038  0.2198  0.0050  -1.7843   0.0000   0.0000   0.0000   0.6977
  -3.800   0.4738   0.00848   0.00202  -0.2040  0.2191  0.0050  -1.7419   0.0000   0.0000   0.0000   0.6865
  -3.700   0.4857   0.00847   0.00201  -0.2041  0.2183  0.0050  -1.6983   0.0000   0.0000   0.0000   0.6759
  -3.600   0.4976   0.00846   0.00200  -0.2043  0.2181  0.0050  -1.6553   0.0000   0.0000   0.0000   0.6657
  -3.500   0.5085   0.00854   0.00203  -0.2042  0.2030  0.0051  -1.6191   0.0000   0.0000   0.0000   0.6566
  -3.400   0.5207   0.00852   0.00203  -0.2044  0.1946  0.0139  -1.6258   0.0000   0.0000   0.0000   0.6473
  -3.300   0.5323   0.00853   0.00203  -0.2045  0.1927  0.0143  -1.5651   0.0000   0.0000   0.0000   0.6386
  -3.200   0.5439   0.00854   0.00203  -0.2046  0.1907  0.0146  -1.5048   0.0000   0.0000   0.0000   0.6303
  -3.100   0.5555   0.00856   0.00204  -0.2047  0.1888  0.0149  -1.4447   0.0000   0.0000   0.0000   0.6224
  -3.000   0.5670   0.00858   0.00205  -0.2048  0.1869  0.0151  -1.3847   0.0000   0.0000   0.0000   0.6147
  -2.900   0.5786   0.00860   0.00205  -0.2048  0.1849  0.0153  -1.3249   0.0000   0.0000   0.0000   0.6074
  -2.800   0.5901   0.00862   0.00206  -0.2049  0.1830  0.0154  -1.2654   0.0000   0.0000   0.0000   0.6004
  -2.700   0.6017   0.00863   0.00207  -0.2050  0.1810  0.0156  -1.2071   0.0000   0.0000   0.0000   0.5936
  -2.600   0.6133   0.00865   0.00207  -0.2051  0.1790  0.0157  -1.1514   0.0000   0.0000   0.0000   0.5871
  -2.500   0.6250   0.00866   0.00207  -0.2052  0.1760  0.0157  -1.1007   0.0000   0.0000   0.0000   0.5807
  -2.400   0.6367   0.00866   0.00207  -0.2053  0.1710  0.0156  -1.0607   0.0000   0.0000   0.0000   0.5746
  -2.300   0.6482   0.00869   0.00207  -0.2053  0.1663  0.0152  -1.0234   0.0000   0.0000   0.0000   0.5688
  -2.200   0.6588   0.00879   0.00213  -0.2052  0.1523  0.0154  -0.9733   0.0000   0.0000   0.0000   0.5634
  -2.100   0.6700   0.00884   0.00215  -0.2053  0.1455  0.0155  -0.9279   0.0000   0.0000   0.0000   0.5580
  -2.000   0.6815   0.00886   0.00216  -0.2053  0.1439  0.0157  -0.9366   0.0000   0.0000   0.0000   0.5527
  -1.900   0.6930   0.00889   0.00217  -0.2054  0.1423  0.0158  -0.9453   0.0000   0.0000   0.0000   0.5476
  -1.800   0.7045   0.00891   0.00219  -0.2054  0.1408  0.0159  -0.9539   0.0000   0.0000   0.0000   0.5427
  -1.700   0.7159   0.00894   0.00220  -0.2055  0.1393  0.0160  -0.9637   0.0000   0.0000   0.0000   0.5379
  -1.600   0.7274   0.00897   0.00221  -0.2055  0.1378  0.0161  -0.9740   0.0000   0.0000   0.0000   0.5333
  -1.500   0.7389   0.00899   0.00223  -0.2056  0.1364  0.0162  -0.9842   0.0000   0.0000   0.0000   0.5288
  -1.400   0.7504   0.00901   0.00224  -0.2057  0.1349  0.0162  -0.9945   0.0000   0.0000   0.0000   0.5245
  -1.300   0.7619   0.00903   0.00225  -0.2057  0.1334  0.0163  -1.0048   0.0000   0.0000   0.0000   0.5202
  -1.200   0.7734   0.00905   0.00226  -0.2058  0.1318  0.0164  -1.0151   0.0000   0.0000   0.0000   0.5161
  -1.100   0.7849   0.00907   0.00228  -0.2059  0.1302  0.0164  -1.0254   0.0000   0.0000   0.0000   0.5121
  -1.000   0.7964   0.00909   0.00229  -0.2059  0.1285  0.0165  -1.0358   0.0000   0.0000   0.0000   0.5083
  -0.900   0.8080   0.00911   0.00231  -0.2060  0.1269  0.0165  -1.0461   0.0000   0.0000   0.0000   0.5045
  -0.800   0.8195   0.00913   0.00233  -0.2061  0.1251  0.0166  -1.0565   0.0000   0.0000   0.0000   0.5008
  -0.700   0.8309   0.00915   0.00234  -0.2061  0.1239  0.0166  -1.0668   0.0000   0.0000   0.0000   0.4973
  -0.600   0.8424   0.00917   0.00236  -0.2062  0.1234  0.0166  -1.0772   0.0000   0.0000   0.0000   0.4938
  -0.500   0.8539   0.00919   0.00238  -0.2063  0.1230  0.0166  -1.0876   0.0000   0.0000   0.0000   0.4904
  -0.400   0.8654   0.00921   0.00240  -0.2063  0.1227  0.0167  -1.0980   0.0000   0.0000   0.0000   0.4872
  -0.300   0.8768   0.00923   0.00242  -0.2064  0.1224  0.0168  -1.1084   0.0000   0.0000   0.0000   0.4840
  -0.200   0.8883   0.00925   0.00243  -0.2064  0.1220  0.0169  -1.1189   0.0000   0.0000   0.0000   0.4809
  -0.100   0.8997   0.00927   0.00245  -0.2065  0.1215  0.0170  -1.1293   0.0000   0.0000   0.0000   0.4778
   0.100   0.9226   0.00932   0.00248  -0.2066  0.1201  0.0182  -1.1502   0.0000   0.0000   0.0000   0.4720
   0.300   0.9437   0.00951   0.00261  -0.2064  0.1030  0.0181  -1.1699   0.0000   0.0000   0.0000   0.4664
   0.400   0.9550   0.00955   0.00264  -0.2064  0.1019  0.0180  -1.1802   0.0000   0.0000   0.0000   0.4637
   0.500   0.9661   0.00959   0.00268  -0.2064  0.1009  0.0177  -1.1906   0.0000   0.0000   0.0000   0.4611
   0.600   0.9773   0.00963   0.00271  -0.2064  0.0999  0.0175  -1.2019   0.0000   0.0000   0.0000   0.4585
   1.200   1.0442   0.00988   0.00293  -0.2064  0.0940  0.0202  -1.2761   0.0000   0.0000   0.0000   0.4441
   1.300   1.0553   0.00992   0.00296  -0.2064  0.0928  0.0224  -1.2910   0.0000   0.0000   0.0000   0.4419
   1.400   1.0664   0.00996   0.00300  -0.2064  0.0915  0.0248  -1.3059   0.0000   0.0000   0.0000   0.4397
   1.500   1.0776   0.00999   0.00305  -0.2064  0.0902  0.0262  -1.3210   0.0000   0.0000   0.0000   0.4376
   1.600   1.0890   0.01002   0.00309  -0.2065  0.0889  0.0343  -1.3362   0.0000   0.0000   0.0000   0.4355
   1.700   1.1002   0.01006   0.00313  -0.2065  0.0878  0.0357  -1.3512   0.0000   0.0000   0.0000   0.4334
   1.800   1.1113   0.01009   0.00317  -0.2065  0.0867  0.0365  -1.3662   0.0000   0.0000   0.0000   0.4314
   1.900   1.1224   0.01013   0.00320  -0.2065  0.0858  0.0370  -1.3813   0.0000   0.0000   0.0000   0.4294
   2.000   1.1335   0.01017   0.00324  -0.2065  0.0849  0.0375  -1.3963   0.0000   0.0000   0.0000   0.4275
   2.100   1.1446   0.01021   0.00328  -0.2065  0.0844  0.0380  -1.4114   0.0000   0.0000   0.0000   0.4256
   2.200   1.1557   0.01024   0.00332  -0.2065  0.0843  0.0389  -1.4264   0.0000   0.0000   0.0000   0.4237
   2.300   1.1668   0.01028   0.00337  -0.2065  0.0840  0.0434  -1.4414   0.0000   0.0000   0.0000   0.4219
   2.400   1.1775   0.01035   0.00343  -0.2064  0.0815  0.0459  -1.4564   0.0000   0.0000   0.0000   0.4201
   2.500   1.1856   0.01064   0.00363  -0.2059  0.0625  0.0478  -1.4762   0.0000   0.0000   0.0000   0.4182
   2.600   1.1960   0.01073   0.00370  -0.2057  0.0580  0.0499  -1.4947   0.0000   0.0000   0.0000   0.4165
   2.700   1.2071   0.01077   0.00376  -0.2058  0.0544  0.0637  -1.5135   0.0000   0.0000   0.0000   0.4148
   2.800   1.2180   0.01082   0.00381  -0.2057  0.0520  0.0669  -1.5320   0.0000   0.0000   0.0000   0.4131
   2.900   1.2289   0.01087   0.00386  -0.2057  0.0514  0.0737  -1.5504   0.0000   0.0000   0.0000   0.4114
   3.000   1.2397   0.01093   0.00391  -0.2056  0.0510  0.0768  -1.5693   0.0000   0.0000   0.0000   0.4098
   3.100   1.2505   0.01098   0.00397  -0.2056  0.0505  0.0798  -1.5926   0.0000   0.0000   0.0000   0.4082
   3.200   1.2614   0.01103   0.00403  -0.2056  0.0499  0.0828  -1.6160   0.0000   0.0000   0.0000   0.4066
   3.300   1.2725   0.01107   0.00409  -0.2056  0.0491  0.1002  -1.6401   0.0000   0.0000   0.0000   0.4050
   3.400   1.2831   0.01114   0.00415  -0.2055  0.0481  0.1013  -1.6640   0.0000   0.0000   0.0000   0.4035
   3.500   1.2936   0.01121   0.00422  -0.2054  0.0470  0.1027  -1.6879   0.0000   0.0000   0.0000   0.4020
   3.600   1.3041   0.01129   0.00429  -0.2053  0.0458  0.1041  -1.7118   0.0000   0.0000   0.0000   0.4004
   3.700   1.3145   0.01136   0.00436  -0.2052  0.0446  0.1095  -1.7356   0.0000   0.0000   0.0000   0.3990
   3.800   1.3250   0.01144   0.00443  -0.2051  0.0434  0.1121  -1.7594   0.0000   0.0000   0.0000   0.3975
   3.900   1.3367   0.01141   0.00443  -0.2052  0.0480  0.1135  -1.7811   0.0000   0.0000   0.0000   0.3961
   4.000   1.3474   0.01147   0.00450  -0.2051  0.0474  0.1196  -1.8153   0.0000   0.0000   0.0000   0.3947
   4.100   1.3581   0.01154   0.00459  -0.2051  0.0458  0.1348  -1.8496   0.0000   0.0000   0.0000   0.3933
   4.200   1.3683   0.01163   0.00468  -0.2050  0.0435  0.1447  -1.8834   0.0000   0.0000   0.0000   0.3919
   4.300   1.3785   0.01172   0.00476  -0.2048  0.0407  0.1480  -1.9172   0.0000   0.0000   0.0000   0.3906
   4.400   1.3890   0.01179   0.00483  -0.2047  0.0384  0.1595  -1.9516   0.0000   0.0000   0.0000   0.3892
   4.500   1.3998   0.01185   0.00490  -0.2047  0.0380  0.1709  -1.9872   0.0000   0.0000   0.0000   0.3879
   4.600   1.4109   0.01189   0.00497  -0.2048  0.0378  0.1937  -2.0232   0.0000   0.0000   0.0000   0.3867
   4.700   1.4214   0.01195   0.00504  -0.2047  0.0376  0.2018  -2.0586   0.0000   0.0000   0.0000   0.3854
   4.800   1.4322   0.01200   0.00512  -0.2047  0.0374  0.2180  -2.0949   0.0000   0.0000   0.0000   0.3841
   4.900   1.4435   0.01204   0.00520  -0.2048  0.0371  0.2480  -2.1319   0.0000   0.0000   0.0000   0.3829
   5.000   1.4540   0.01210   0.00527  -0.2047  0.0368  0.2591  -2.1680   0.0000   0.0000   0.0000   0.3817
   5.100   1.4651   0.01215   0.00536  -0.2048  0.0363  0.2856  -2.2054   0.0000   0.0000   0.0000   0.3805
   5.200   1.4759   0.01221   0.00545  -0.2048  0.0356  0.3083  -2.2429   0.0000   0.0000   0.0000   0.3794
   5.400   1.4949   0.01255   0.00581  -0.2044  0.0233  0.3743  -2.3112   0.0000   0.0000   0.0000   0.3770
   5.500   1.5061   0.01264   0.00598  -0.2046  0.0198  0.4334  -2.3401   0.0000   0.0000   0.0000   0.3760
   5.600   1.5167   0.01272   0.00609  -0.2046  0.0171  0.4594  -2.3744   0.0000   0.0000   0.0000   0.3749
   5.700   1.5266   0.01281   0.00619  -0.2044  0.0166  0.4644  -2.4101   0.0000   0.0000   0.0000   0.3737
   5.800   1.5365   0.01290   0.00628  -0.2042  0.0164  0.4688  -2.4462   0.0000   0.0000   0.0000   0.3725
   5.900   1.5420   0.01334   0.00672  -0.2032  0.0039  0.4867  -2.4854   0.0000   0.0000   0.0000   0.3712
   6.000   1.5515   0.01346   0.00684  -0.2029  0.0035  0.4926  -2.5216   0.0000   0.0000   0.0000   0.3701
   6.100   1.5610   0.01356   0.00695  -0.2026  0.0033  0.4958  -2.5580   0.0000   0.0000   0.0000   0.3690
   6.200   1.5704   0.01367   0.00706  -0.2023  0.0031  0.4976  -2.5943   0.0000   0.0000   0.0000   0.3678
   6.300   1.5798   0.01378   0.00716  -0.2021  0.0029  0.4990  -2.6304   0.0000   0.0000   0.0000   0.3667
   6.400   1.5892   0.01388   0.00726  -0.2018  0.0027  0.5001  -2.6665   0.0000   0.0000   0.0000   0.3656
   6.500   1.5986   0.01399   0.00737  -0.2015  0.0026  0.5046  -2.7027   0.0000   0.0000   0.0000   0.3645
   6.600   1.6080   0.01409   0.00748  -0.2012  0.0024  0.5102  -2.7390   0.0000   0.0000   0.0000   0.3635
   6.700   1.6175   0.01420   0.00759  -0.2009  0.0022  0.5181  -2.7757   0.0000   0.0000   0.0000   0.3624
   6.800   1.6269   0.01430   0.00771  -0.2007  0.0021  0.5272  -2.8125   0.0000   0.0000   0.0000   0.3614
   6.900   1.6361   0.01441   0.00783  -0.2003  0.0020  0.5320  -2.8491   0.0000   0.0000   0.0000   0.3603
   7.000   1.6452   0.01452   0.00794  -0.2000  0.0018  0.5406  -2.8858   0.0000   0.0000   0.0000   0.3592
   7.100   1.6543   0.01463   0.00806  -0.1997  0.0017  0.5473  -2.9227   0.0000   0.0000   0.0000   0.3582
   7.200   1.6632   0.01475   0.00818  -0.1993  0.0016  0.5504  -2.9593   0.0000   0.0000   0.0000   0.3572
   7.300   1.6720   0.01487   0.00830  -0.1989  0.0015  0.5533  -2.9960   0.0000   0.0000   0.0000   0.3561
   7.400   1.6807   0.01499   0.00843  -0.1985  0.0014  0.5560  -3.0325   0.0000   0.0000   0.0000   0.3551
   7.500   1.6893   0.01511   0.00855  -0.1981  0.0014  0.5587  -3.0690   0.0000   0.0000   0.0000   0.3541
   7.600   1.6974   0.01524   0.00868  -0.1976  0.0014  0.5610  -3.1048   0.0000   0.0000   0.0000   0.3530
   7.700   1.7044   0.01536   0.00881  -0.1968  0.0013  0.5628  -3.1387   0.0000   0.0000   0.0000   0.3519
   7.800   1.7111   0.01550   0.00894  -0.1960  0.0013  0.5642  -3.1720   0.0000   0.0000   0.0000   0.3508
   7.900   1.7179   0.01563   0.00908  -0.1952  0.0013  0.5653  -3.2058   0.0000   0.0000   0.0000   0.3498
   8.000   1.7250   0.01577   0.00922  -0.1945  0.0013  0.5711  -3.2401   0.0000   0.0000   0.0000   0.3487
   8.100   1.7320   0.01591   0.00937  -0.1938  0.0013  0.5775  -3.2745   0.0000   0.0000   0.0000   0.3477
   8.200   1.7391   0.01605   0.00954  -0.1931  0.0013  0.5817  -3.3092   0.0000   0.0000   0.0000   0.3466
   8.300   1.7464   0.01619   0.00970  -0.1924  0.0013  0.5889  -3.3442   0.0000   0.0000   0.0000   0.3456
   8.400   1.7536   0.01634   0.00986  -0.1917  0.0013  0.5952  -3.3792   0.0000   0.0000   0.0000   0.3446
   8.500   1.7606   0.01650   0.01003  -0.1910  0.0013  0.6055  -3.4140   0.0000   0.0000   0.0000   0.3436
   8.600   1.7677   0.01665   0.01021  -0.1904  0.0013  0.6191  -3.4492   0.0000   0.0000   0.0000   0.3426
   8.700   1.7745   0.01682   0.01039  -0.1897  0.0013  0.6265  -3.4838   0.0000   0.0000   0.0000   0.3416
   8.800   1.7812   0.01699   0.01057  -0.1889  0.0013  0.6308  -3.5183   0.0000   0.0000   0.0000   0.3406
   8.900   1.7881   0.01716   0.01077  -0.1882  0.0013  0.6429  -3.5533   0.0000   0.0000   0.0000   0.3396
   9.000   1.7948   0.01735   0.01097  -0.1875  0.0013  0.6516  -3.5881   0.0000   0.0000   0.0000   0.3387
   9.100   1.8014   0.01753   0.01117  -0.1868  0.0013  0.6578  -3.6227   0.0000   0.0000   0.0000   0.3377
   9.200   1.8080   0.01773   0.01138  -0.1861  0.0013  0.6641  -3.6644   0.0000   0.0000   0.0000   0.3367
   9.300   1.8149   0.01792   0.01159  -0.1854  0.0013  0.6746  -3.7114   0.0000   0.0000   0.0000   0.3358
   9.400   1.8213   0.01813   0.01181  -0.1847  0.0012  0.6819  -3.7574   0.0000   0.0000   0.0000   0.3348
   9.500   1.8274   0.01834   0.01204  -0.1839  0.0012  0.6866  -3.8029   0.0000   0.0000   0.0000   0.3339
   9.600   1.8334   0.01856   0.01227  -0.1831  0.0012  0.6895  -3.8482   0.0000   0.0000   0.0000   0.3329
   9.700   1.8394   0.01879   0.01251  -0.1823  0.0012  0.6915  -3.8934   0.0000   0.0000   0.0000   0.3320
   9.800   1.8452   0.01903   0.01276  -0.1815  0.0012  0.6977  -3.9386   0.0000   0.0000   0.0000   0.3310
   9.900   1.8509   0.01927   0.01302  -0.1807  0.0012  0.7039  -3.9834   0.0000   0.0000   0.0000   0.3301
  10.000   1.8567   0.01953   0.01329  -0.1799  0.0012  0.7091  -4.0287   0.0000   0.0000   0.0000   0.3292
  10.100   1.8626   0.01978   0.01356  -0.1791  0.0012  0.7139  -4.0743   0.0000   0.0000   0.0000   0.3283
  10.200   1.8683   0.02004   0.01384  -0.1783  0.0012  0.7182  -4.1196   0.0000   0.0000   0.0000   0.3274
  10.400   1.8792   0.02062   0.01447  -0.1768  0.0012  0.7338  -4.2592   0.0000   0.0000   0.0000   0.3256
  10.500   1.8849   0.02091   0.01478  -0.1760  0.0012  0.7424  -4.3429   0.0000   0.0000   0.0000   0.3247
  10.600   1.8903   0.02122   0.01510  -0.1752  0.0012  0.7484  -4.4249   0.0000   0.0000   0.0000   0.3238
  10.700   1.8953   0.02155   0.01546  -0.1744  0.0012  0.7571  -4.5042   0.0000   0.0000   0.0000   0.3230
  10.800   1.9005   0.02188   0.01582  -0.1737  0.0012  0.7671  -4.5832   0.0000   0.0000   0.0000   0.3221
  10.900   1.9058   0.02222   0.01619  -0.1729  0.0012  0.7756  -4.6603   0.0000   0.0000   0.0000   0.3213
  11.000   1.9110   0.02257   0.01658  -0.1722  0.0012  0.7877  -4.7349   0.0000   0.0000   0.0000   0.3204
  11.100   1.9155   0.02296   0.01701  -0.1714  0.0012  0.7998  -4.8039   0.0000   0.0000   0.0000   0.3196
  11.200   1.9201   0.02336   0.01745  -0.1706  0.0012  0.8115  -4.8705   0.0000   0.0000   0.0000   0.3188
  11.300   1.9249   0.02377   0.01790  -0.1698  0.0012  0.8252  -4.9342   0.0000   0.0000   0.0000   0.3179
  11.400   1.9291   0.02422   0.01841  -0.1690  0.0012  0.8412  -4.9906   0.0000   0.0000   0.0000   0.3171
  11.500   1.9323   0.02473   0.01900  -0.1681  0.0012  0.8632  -5.0371   0.0000   0.0000   0.0000   0.3163
  14.800   2.0176   0.04709   0.04212  -0.1458  0.0010  1.0000  -7.9419   0.0000   0.0000   0.0000   0.2941
  14.900   2.0224   0.04765   0.04266  -0.1455  0.0010  1.0000  -8.0947   0.0000   0.0000   0.0000   0.2935
  15.000   2.0242   0.04855   0.04358  -0.1450  0.0010  1.0000  -8.1841   0.0000   0.0000   0.0000   0.2930
  15.100   2.0255   0.04951   0.04457  -0.1445  0.0010  1.0000  -8.2644   0.0000   0.0000   0.0000   0.2924
  15.200   2.0250   0.05069   0.04579  -0.1441  0.0010  1.0000  -8.3319   0.0000   0.0000   0.0000   0.2919
  15.300   2.0232   0.05207   0.04720  -0.1436  0.0010  1.0000  -8.3893   0.0000   0.0000   0.0000   0.2915
  15.400   2.0233   0.05322   0.04838  -0.1431  0.0010  1.0000  -8.4605   0.0000   0.0000   0.0000   0.2910
  15.500   2.0238   0.05432   0.04951  -0.1427  0.0010  1.0000  -8.5351   0.0000   0.0000   0.0000   0.2906
  15.600   2.0244   0.05542   0.05064  -0.1423  0.0010  1.0000  -8.6101   0.0000   0.0000   0.0000   0.2901
  15.700   2.0232   0.05676   0.05201  -0.1419  0.0010  1.0000  -8.6718   0.0000   0.0000   0.0000   0.2897
  15.800   2.0201   0.05839   0.05368  -0.1416  0.0010  1.0000  -8.7184   0.0000   0.0000   0.0000   0.2893
  15.900   2.0195   0.05967   0.05499  -0.1412  0.0010  1.0000  -8.7847   0.0000   0.0000   0.0000   0.2889
  16.000   2.0195   0.06088   0.05623  -0.1409  0.0010  1.0000  -8.8546   0.0000   0.0000   0.0000   0.2885
  16.100   2.0194   0.06209   0.05748  -0.1406  0.0010  1.0000  -8.9249   0.0000   0.0000   0.0000   0.2881
  16.200   2.0193   0.06333   0.05875  -0.1402  0.0010  1.0000  -8.9940   0.0000   0.0000   0.0000   0.2877
  16.300   2.0150   0.06517   0.06063  -0.1400  0.0010  1.0000  -9.0301   0.0000   0.0000   0.0000   0.2874
  16.900   1.9195   0.08607   0.08217  -0.1391  0.0011  1.0000  -8.2505   0.0000   0.0000   0.0000   0.2887
  17.000   1.9180   0.08763   0.08376  -0.1391  0.0011  1.0000  -8.3122   0.0000   0.0000   0.0000   0.2885
  17.100   1.9149   0.08948   0.08564  -0.1393  0.0011  1.0000  -8.3625   0.0000   0.0000   0.0000   0.2884
  17.200   1.9092   0.09180   0.08800  -0.1397  0.0011  1.0000  -8.3942   0.0000   0.0000   0.0000   0.2886
  17.300   1.9072   0.09349   0.08973  -0.1398  0.0011  1.0000  -8.4525   0.0000   0.0000   0.0000   0.2884
