xflr5 v6.59

 Calculated polar for: WORTMANN FX 63-137 AIRFOIL

 1 1 Reynolds number fixed          Mach number fixed         

 xtrf =   1.000 (top)        1.000 (bottom)
 Mach =   0.000     Re =     2.500 e 6     Ncrit =   9.000

  alpha     CL        CD       CDp       Cm    Top Xtr Bot Xtr   Cpmin    Chinge    XCp    
 ------- -------- --------- --------- -------- ------- ------- -------- --------- ---------
 -14.600  -0.1416   0.13276   0.13068  -0.0982  0.8317  0.0038  -2.7940   0.0000   0.0000   0.0000  -0.5224
 -14.500  -0.1385   0.13166   0.12955  -0.0987  0.8249  0.0039  -2.7745   0.0000   0.0000   0.0000  -0.5426
 -14.400  -0.1352   0.13057   0.12844  -0.0992  0.8184  0.0040  -2.7513   0.0000   0.0000   0.0000  -0.5647
 -14.300  -0.1321   0.12953   0.12736  -0.0996  0.8095  0.0041  -2.7265   0.0000   0.0000   0.0000  -0.5867
 -14.200  -0.1289   0.12849   0.12628  -0.1000  0.8020  0.0041  -2.7002   0.0000   0.0000   0.0000  -0.6099
 -14.100  -0.1256   0.12743   0.12520  -0.1005  0.7964  0.0042  -2.6727   0.0000   0.0000   0.0000  -0.6359
 -14.000  -0.1223   0.12638   0.12413  -0.1010  0.7904  0.0042  -2.6446   0.0000   0.0000   0.0000  -0.6630
 -13.900  -0.1191   0.12536   0.12307  -0.1014  0.7835  0.0043  -2.6161   0.0000   0.0000   0.0000  -0.6907
 -13.800  -0.1157   0.12432   0.12201  -0.1019  0.7772  0.0043  -2.5870   0.0000   0.0000   0.0000  -0.7210
 -13.700  -0.1122   0.12327   0.12094  -0.1024  0.7734  0.0044  -2.5572   0.0000   0.0000   0.0000  -0.7551
 -13.600  -0.1088   0.12224   0.11989  -0.1028  0.7665  0.0044  -2.5272   0.0000   0.0000   0.0000  -0.7899
 -13.500  -0.1057   0.12125   0.11886  -0.1032  0.7560  0.0044  -2.4974   0.0000   0.0000   0.0000  -0.8239
 -13.400  -0.1024   0.12026   0.11782  -0.1036  0.7476  0.0045  -2.4671   0.0000   0.0000   0.0000  -0.8615
 -13.300  -0.0990   0.11924   0.11678  -0.1041  0.7424  0.0045  -2.4361   0.0000   0.0000   0.0000  -0.9039
 -13.200  -0.0956   0.11824   0.11576  -0.1045  0.7369  0.0045  -2.4045   0.0000   0.0000   0.0000  -0.9490
 -13.100  -0.0922   0.11725   0.11474  -0.1049  0.7311  0.0045  -2.3726   0.0000   0.0000   0.0000  -0.9966
 -13.000  -0.0888   0.11627   0.11373  -0.1054  0.7246  0.0046  -2.3402   0.0000   0.0000   0.0000  -1.0483
 -12.900  -0.0852   0.11527   0.11272  -0.1058  0.7205  0.0046  -2.3070   0.0000   0.0000   0.0000  -1.1071
 -12.800  -0.0816   0.11426   0.11171  -0.1063  0.7185  0.0046  -2.2733   0.0000   0.0000   0.0000  -1.1726
 -12.700  -0.0780   0.11326   0.11070  -0.1068  0.7157  0.0046  -2.2400   0.0000   0.0000   0.0000  -1.2432
 -12.600  -0.0971   0.10661   0.10410  -0.1093  0.7216  0.0082  -2.7453   0.0000   0.0000   0.0000  -0.9777
 -12.500  -0.1057   0.10228   0.09980  -0.1109  0.7274  0.0084  -3.0340   0.0000   0.0000   0.0000  -0.8932
 -12.000  -0.0642   0.10250   0.09984  -0.1117  0.6839  0.0100  -2.4008   0.0000   0.0000   0.0000  -1.6338
 -10.500  -0.3179   0.01158   0.00686  -0.1914  0.7197  0.0067  -7.6427   0.0000   0.0000   0.0000  -0.3823
 -10.400  -0.3058   0.01140   0.00664  -0.1918  0.7184  0.0066  -7.4975   0.0000   0.0000   0.0000  -0.4081
 -10.300  -0.2937   0.01122   0.00643  -0.1922  0.7170  0.0066  -7.3530   0.0000   0.0000   0.0000  -0.4359
 -10.200  -0.2817   0.01105   0.00623  -0.1925  0.7155  0.0066  -7.2094   0.0000   0.0000   0.0000  -0.4660
 -10.100  -0.2696   0.01090   0.00604  -0.1929  0.7134  0.0066  -7.0667   0.0000   0.0000   0.0000  -0.4988
 -10.000  -0.2576   0.01075   0.00585  -0.1932  0.7106  0.0065  -6.9254   0.0000   0.0000   0.0000  -0.5343
  -9.900  -0.2458   0.01061   0.00568  -0.1935  0.7066  0.0065  -6.7857   0.0000   0.0000   0.0000  -0.5728
  -9.800  -0.2341   0.01049   0.00551  -0.1937  0.7016  0.0065  -6.6480   0.0000   0.0000   0.0000  -0.6143
  -9.700  -0.2225   0.01038   0.00536  -0.1939  0.6959  0.0065  -6.5120   0.0000   0.0000   0.0000  -0.6595
  -9.600  -0.2107   0.01027   0.00520  -0.1942  0.6908  0.0064  -6.3757   0.0000   0.0000   0.0000  -0.7109
  -9.500  -0.1987   0.01014   0.00505  -0.1944  0.6884  0.0064  -6.2588   0.0000   0.0000   0.0000  -0.7699
  -9.400  -0.1867   0.01002   0.00490  -0.1947  0.6859  0.0064  -6.1427   0.0000   0.0000   0.0000  -0.8365
  -9.300  -0.1747   0.00990   0.00474  -0.1950  0.6828  0.0063  -6.0283   0.0000   0.0000   0.0000  -0.9121
  -9.200  -0.1628   0.00980   0.00460  -0.1952  0.6782  0.0063  -5.9143   0.0000   0.0000   0.0000  -0.9972
  -9.100  -0.1513   0.00970   0.00446  -0.1954  0.6714  0.0063  -5.8023   0.0000   0.0000   0.0000  -1.0931
  -9.000  -0.1397   0.00960   0.00432  -0.1956  0.6626  0.0063  -5.6906   0.0000   0.0000   0.0000  -1.2056
  -8.900  -0.1275   0.00949   0.00420  -0.1959  0.6590  0.0063  -5.5769   0.0000   0.0000   0.0000  -1.3453
  -8.800  -0.1154   0.00939   0.00408  -0.1962  0.6555  0.0063  -5.4643   0.0000   0.0000   0.0000  -1.5137
  -8.700  -0.1038   0.00932   0.00397  -0.1964  0.6463  0.0062  -5.3546   0.0000   0.0000   0.0000  -1.7120
  -8.600  -0.0931   0.00932   0.00388  -0.1963  0.6284  0.0062  -5.2502   0.0000   0.0000   0.0000  -1.9366
  -8.500  -0.0815   0.00927   0.00378  -0.1965  0.6203  0.0062  -5.1424   0.0000   0.0000   0.0000  -2.2484
  -8.400  -0.0698   0.00922   0.00369  -0.1966  0.6135  0.0062  -5.0353   0.0000   0.0000   0.0000  -2.6651
  -8.300  -0.0582   0.00917   0.00360  -0.1968  0.6076  0.0062  -4.9288   0.0000   0.0000   0.0000  -3.2503
  -8.200  -0.0463   0.00912   0.00351  -0.1970  0.6022  0.0061  -4.8223   0.0000   0.0000   0.0000  -4.1458
  -8.100  -0.0344   0.00905   0.00342  -0.1972  0.5975  0.0061  -4.7160   0.0000   0.0000   0.0000  -5.6830
  -8.000  -0.0222   0.00898   0.00333  -0.1974  0.5962  0.0061  -4.6097   0.0000   0.0000   0.0000  -8.9393
  -7.900  -0.0101   0.00891   0.00325  -0.1976  0.5946  0.0061  -4.5044   0.0000   0.0000   0.0000  -20.0439
  -7.800   0.0020   0.00885   0.00317  -0.1978  0.5925  0.0061  -4.4002   0.0000   0.0000   0.0000  100.2154
  -7.700   0.0140   0.00880   0.00310  -0.1980  0.5890  0.0061  -4.2973   0.0000   0.0000   0.0000  14.7973
  -7.600   0.0259   0.00875   0.00303  -0.1982  0.5838  0.0060  -4.1959   0.0000   0.0000   0.0000   8.1377
  -7.500   0.0366   0.00880   0.00299  -0.1981  0.5648  0.0060  -4.1243   0.0000   0.0000   0.0000   5.8348
  -7.400   0.0483   0.00877   0.00293  -0.1983  0.5589  0.0060  -4.0495   0.0000   0.0000   0.0000   4.4778
  -7.300   0.0600   0.00874   0.00287  -0.1984  0.5532  0.0060  -3.9752   0.0000   0.0000   0.0000   3.6532
  -7.200   0.0717   0.00872   0.00281  -0.1985  0.5476  0.0060  -3.9014   0.0000   0.0000   0.0000   3.1007
  -7.100   0.0833   0.00871   0.00276  -0.1986  0.5414  0.0060  -3.8280   0.0000   0.0000   0.0000   2.7033
  -7.000   0.0951   0.00868   0.00271  -0.1988  0.5352  0.0061  -3.7541   0.0000   0.0000   0.0000   2.3998
  -6.900   0.1071   0.00864   0.00265  -0.1990  0.5329  0.0061  -3.6794   0.0000   0.0000   0.0000   2.1589
  -6.800   0.1192   0.00860   0.00259  -0.1992  0.5314  0.0061  -3.6055   0.0000   0.0000   0.0000   1.9664
  -6.700   0.1312   0.00856   0.00255  -0.1993  0.5297  0.0061  -3.5320   0.0000   0.0000   0.0000   1.8096
  -6.600   0.1432   0.00852   0.00250  -0.1995  0.5274  0.0061  -3.4591   0.0000   0.0000   0.0000   1.6795
  -6.500   0.1551   0.00849   0.00246  -0.1997  0.5239  0.0061  -3.3869   0.0000   0.0000   0.0000   1.5702
  -6.400   0.1665   0.00850   0.00243  -0.1997  0.5135  0.0061  -3.3169   0.0000   0.0000   0.0000   1.4800
  -6.300   0.1773   0.00856   0.00242  -0.1997  0.4971  0.0061  -3.2490   0.0000   0.0000   0.0000   1.4043
  -6.200   0.1889   0.00856   0.00239  -0.1998  0.4910  0.0061  -3.1785   0.0000   0.0000   0.0000   1.3333
  -6.100   0.2005   0.00856   0.00236  -0.1999  0.4850  0.0060  -3.1084   0.0000   0.0000   0.0000   1.2709
  -6.000   0.2120   0.00857   0.00234  -0.1999  0.4789  0.0060  -3.0382   0.0000   0.0000   0.0000   1.2156
  -5.900   0.2235   0.00857   0.00232  -0.2000  0.4720  0.0060  -2.9662   0.0000   0.0000   0.0000   1.1656
  -5.800   0.2353   0.00856   0.00230  -0.2002  0.4670  0.0060  -2.8911   0.0000   0.0000   0.0000   1.1199
  -5.700   0.2471   0.00855   0.00228  -0.2003  0.4655  0.0060  -2.8107   0.0000   0.0000   0.0000   1.0785
  -5.600   0.2584   0.00858   0.00235  -0.2003  0.4635  0.0060  -2.6962   0.0000   0.0000   0.0000   1.0421
  -5.500   0.2695   0.00863   0.00244  -0.2003  0.4603  0.0060  -2.5869   0.0000   0.0000   0.0000   1.0091
  -5.400   0.2814   0.00861   0.00242  -0.2004  0.4592  0.0060  -2.5181   0.0000   0.0000   0.0000   0.9772
  -5.300   0.2914   0.00873   0.00245  -0.2002  0.4341  0.0059  -2.4575   0.0000   0.0000   0.0000   0.9513
  -5.200   0.3030   0.00874   0.00243  -0.2003  0.4286  0.0059  -2.3941   0.0000   0.0000   0.0000   0.9245
  -5.100   0.3145   0.00875   0.00241  -0.2004  0.4233  0.0059  -2.3326   0.0000   0.0000   0.0000   0.8997
  -5.000   0.3261   0.00876   0.00240  -0.2005  0.4181  0.0059  -2.2728   0.0000   0.0000   0.0000   0.8767
  -4.900   0.3376   0.00876   0.00238  -0.2006  0.4126  0.0059  -2.2143   0.0000   0.0000   0.0000   0.8553
  -4.800   0.3493   0.00876   0.00236  -0.2007  0.4064  0.0059  -2.1568   0.0000   0.0000   0.0000   0.8351
  -4.700   0.3612   0.00875   0.00233  -0.2009  0.4022  0.0059  -2.1001   0.0000   0.0000   0.0000   0.8160
  -4.600   0.3733   0.00872   0.00230  -0.2010  0.4011  0.0059  -2.0444   0.0000   0.0000   0.0000   0.7980
  -4.500   0.3853   0.00869   0.00227  -0.2012  0.3996  0.0059  -1.9899   0.0000   0.0000   0.0000   0.7811
  -4.400   0.3972   0.00867   0.00223  -0.2014  0.3975  0.0059  -1.9376   0.0000   0.0000   0.0000   0.7653
  -4.300   0.4092   0.00865   0.00220  -0.2015  0.3954  0.0060  -1.8854   0.0000   0.0000   0.0000   0.7504
  -4.200   0.4203   0.00870   0.00220  -0.2015  0.3829  0.0060  -1.8363   0.0000   0.0000   0.0000   0.7370
  -4.100   0.4311   0.00877   0.00220  -0.2015  0.3685  0.0060  -1.7889   0.0000   0.0000   0.0000   0.7244
  -4.000   0.4428   0.00878   0.00219  -0.2016  0.3640  0.0061  -1.7405   0.0000   0.0000   0.0000   0.7120
  -3.900   0.4544   0.00879   0.00218  -0.2017  0.3597  0.0063  -1.6923   0.0000   0.0000   0.0000   0.7002
  -3.800   0.4685   0.00863   0.00198  -0.2023  0.3551  0.0143  -1.8208   0.0000   0.0000   0.0000   0.6877
  -3.700   0.4797   0.00867   0.00201  -0.2023  0.3506  0.0148  -1.7419   0.0000   0.0000   0.0000   0.6774
  -3.600   0.4909   0.00871   0.00204  -0.2023  0.3455  0.0153  -1.6585   0.0000   0.0000   0.0000   0.6675
  -3.500   0.5021   0.00875   0.00208  -0.2023  0.3410  0.0157  -1.5734   0.0000   0.0000   0.0000   0.6580
  -3.400   0.5134   0.00878   0.00213  -0.2024  0.3388  0.0161  -1.4901   0.0000   0.0000   0.0000   0.6489
  -3.300   0.5249   0.00879   0.00217  -0.2024  0.3379  0.0164  -1.4110   0.0000   0.0000   0.0000   0.6401
  -3.200   0.5363   0.00881   0.00221  -0.2025  0.3369  0.0166  -1.3357   0.0000   0.0000   0.0000   0.6317
  -3.100   0.5477   0.00883   0.00226  -0.2026  0.3356  0.0168  -1.2617   0.0000   0.0000   0.0000   0.6237
  -2.300   0.6392   0.00906   0.00218  -0.2031  0.2863  0.0169  -0.8962   0.0000   0.0000   0.0000   0.5697
  -1.500   0.7282   0.00949   0.00233  -0.2032  0.2214  0.0190  -0.9703   0.0000   0.0000   0.0000   0.5295
  -1.400   0.7399   0.00949   0.00232  -0.2033  0.2207  0.0189  -0.9791   0.0000   0.0000   0.0000   0.5251
  -1.300   0.7516   0.00950   0.00232  -0.2034  0.2198  0.0188  -0.9880   0.0000   0.0000   0.0000   0.5208
  -1.200   0.7632   0.00951   0.00232  -0.2035  0.2187  0.0188  -0.9969   0.0000   0.0000   0.0000   0.5166
  -1.100   0.7748   0.00953   0.00232  -0.2035  0.2170  0.0189  -1.0065   0.0000   0.0000   0.0000   0.5125
  -1.000   0.7865   0.00954   0.00232  -0.2036  0.2165  0.0191  -1.0169   0.0000   0.0000   0.0000   0.5086
  -0.900   0.7964   0.00970   0.00240  -0.2034  0.1974  0.0193  -1.0307   0.0000   0.0000   0.0000   0.5050
  -0.800   0.8076   0.00974   0.00242  -0.2034  0.1934  0.0195  -1.0415   0.0000   0.0000   0.0000   0.5013
  -0.700   0.8190   0.00977   0.00243  -0.2035  0.1908  0.0196  -1.0522   0.0000   0.0000   0.0000   0.4977
  -0.600   0.8303   0.00981   0.00245  -0.2035  0.1884  0.0197  -1.0630   0.0000   0.0000   0.0000   0.4942
  -0.500   0.8415   0.00986   0.00248  -0.2035  0.1859  0.0198  -1.0738   0.0000   0.0000   0.0000   0.4908
  -0.400   0.8526   0.00991   0.00250  -0.2035  0.1822  0.0197  -1.0847   0.0000   0.0000   0.0000   0.4875
  -0.300   0.8636   0.00997   0.00253  -0.2035  0.1766  0.0195  -1.0956   0.0000   0.0000   0.0000   0.4842
  -0.200   0.8748   0.01001   0.00256  -0.2035  0.1707  0.0194  -1.1063   0.0000   0.0000   0.0000   0.4811
  -0.100   0.8862   0.01003   0.00258  -0.2036  0.1696  0.0193  -1.1167   0.0000   0.0000   0.0000   0.4780
   0.000   0.8976   0.01006   0.00260  -0.2036  0.1690  0.0191  -1.1272   0.0000   0.0000   0.0000   0.4750
   0.100   0.9090   0.01008   0.00263  -0.2036  0.1683  0.0190  -1.1376   0.0000   0.0000   0.0000   0.4720
   0.200   0.9204   0.01011   0.00265  -0.2037  0.1675  0.0189  -1.1480   0.0000   0.0000   0.0000   0.4692
   0.300   0.9317   0.01013   0.00268  -0.2037  0.1665  0.0189  -1.1585   0.0000   0.0000   0.0000   0.4664
   0.400   0.9429   0.01017   0.00271  -0.2037  0.1649  0.0188  -1.1690   0.0000   0.0000   0.0000   0.4636
   0.500   0.9534   0.01027   0.00279  -0.2036  0.1557  0.0187  -1.1794   0.0000   0.0000   0.0000   0.4610
   0.600   0.9635   0.01040   0.00287  -0.2034  0.1453  0.0187  -1.1897   0.0000   0.0000   0.0000   0.4584
   0.700   0.9744   0.01046   0.00291  -0.2034  0.1431  0.0187  -1.2001   0.0000   0.0000   0.0000   0.4559
   0.800   0.9854   0.01051   0.00296  -0.2033  0.1409  0.0188  -1.2104   0.0000   0.0000   0.0000   0.4534
   0.900   0.9963   0.01058   0.00301  -0.2033  0.1387  0.0191  -1.2219   0.0000   0.0000   0.0000   0.4509
   1.000   1.0073   0.01063   0.00305  -0.2033  0.1372  0.0206  -1.2345   0.0000   0.0000   0.0000   0.4485
   1.100   1.0181   0.01068   0.00310  -0.2032  0.1351  0.0259  -1.2471   0.0000   0.0000   0.0000   0.4462
   1.200   1.0294   0.01072   0.00317  -0.2033  0.1326  0.0346  -1.2598   0.0000   0.0000   0.0000   0.4439
   1.300   1.0405   0.01076   0.00321  -0.2033  0.1301  0.0362  -1.2724   0.0000   0.0000   0.0000   0.4416
   1.400   1.0515   0.01081   0.00325  -0.2033  0.1275  0.0371  -1.2849   0.0000   0.0000   0.0000   0.4394
   1.500   1.0626   0.01085   0.00329  -0.2033  0.1253  0.0377  -1.2974   0.0000   0.0000   0.0000   0.4373
   1.600   1.0737   0.01089   0.00333  -0.2032  0.1240  0.0381  -1.3098   0.0000   0.0000   0.0000   0.4352
   1.700   1.0848   0.01093   0.00337  -0.2032  0.1237  0.0384  -1.3222   0.0000   0.0000   0.0000   0.4331
   1.800   1.0959   0.01096   0.00341  -0.2032  0.1233  0.0396  -1.3369   0.0000   0.0000   0.0000   0.4310
   1.900   1.1069   0.01100   0.00345  -0.2032  0.1228  0.0412  -1.3519   0.0000   0.0000   0.0000   0.4290
   2.000   1.1180   0.01104   0.00349  -0.2032  0.1222  0.0433  -1.3670   0.0000   0.0000   0.0000   0.4271
   2.100   1.1290   0.01108   0.00353  -0.2032  0.1215  0.0461  -1.3823   0.0000   0.0000   0.0000   0.4252
   2.200   1.1399   0.01113   0.00358  -0.2032  0.1205  0.0489  -1.3976   0.0000   0.0000   0.0000   0.4233
   2.300   1.1513   0.01116   0.00366  -0.2033  0.1189  0.0663  -1.4161   0.0000   0.0000   0.0000   0.4214
   2.400   1.1610   0.01131   0.00377  -0.2030  0.1084  0.0717  -1.4370   0.0000   0.0000   0.0000   0.4196
   2.500   1.1712   0.01142   0.00387  -0.2029  0.1023  0.0844  -1.4544   0.0000   0.0000   0.0000   0.4178
   2.600   1.1824   0.01147   0.00393  -0.2030  0.1007  0.1101  -1.4705   0.0000   0.0000   0.0000   0.4161
   2.700   1.1931   0.01156   0.00402  -0.2029  0.0972  0.1295  -1.4829   0.0000   0.0000   0.0000   0.4144
   2.800   1.2036   0.01165   0.00410  -0.2029  0.0922  0.1448  -1.4994   0.0000   0.0000   0.0000   0.4127
   2.900   1.2141   0.01173   0.00418  -0.2028  0.0867  0.1525  -1.5207   0.0000   0.0000   0.0000   0.4111
   3.000   1.2252   0.01177   0.00425  -0.2028  0.0842  0.1661  -1.5440   0.0000   0.0000   0.0000   0.4094
   3.100   1.2368   0.01180   0.00432  -0.2030  0.0834  0.1926  -1.5692   0.0000   0.0000   0.0000   0.4079
   3.200   1.2475   0.01186   0.00438  -0.2029  0.0824  0.2005  -1.5932   0.0000   0.0000   0.0000   0.4063
   3.300   1.2587   0.01190   0.00446  -0.2030  0.0807  0.2182  -1.6178   0.0000   0.0000   0.0000   0.4048
   3.400   1.2691   0.01202   0.00460  -0.2030  0.0705  0.2473  -1.6458   0.0000   0.0000   0.0000   0.4033
   3.500   1.2787   0.01217   0.00472  -0.2027  0.0651  0.2598  -1.6664   0.0000   0.0000   0.0000   0.4017
   3.600   1.2898   0.01223   0.00481  -0.2028  0.0631  0.2852  -1.6867   0.0000   0.0000   0.0000   0.4003
   3.700   1.3007   0.01230   0.00490  -0.2029  0.0611  0.3075  -1.7064   0.0000   0.0000   0.0000   0.3989
   3.800   1.3114   0.01237   0.00498  -0.2028  0.0592  0.3230  -1.7266   0.0000   0.0000   0.0000   0.3974
   3.900   1.3221   0.01241   0.00504  -0.2028  0.0616  0.3192  -1.7518   0.0000   0.0000   0.0000   0.3959
   4.000   1.3337   0.01244   0.00513  -0.2030  0.0607  0.3516  -1.7855   0.0000   0.0000   0.0000   0.3946
   4.100   1.3444   0.01250   0.00521  -0.2029  0.0591  0.3691  -1.8192   0.0000   0.0000   0.0000   0.3932
   4.200   1.3551   0.01257   0.00530  -0.2029  0.0573  0.3847  -1.8530   0.0000   0.0000   0.0000   0.3919
   4.300   1.3657   0.01264   0.00539  -0.2029  0.0554  0.3997  -1.8870   0.0000   0.0000   0.0000   0.3905
   4.400   1.3767   0.01269   0.00549  -0.2029  0.0538  0.4217  -1.9215   0.0000   0.0000   0.0000   0.3892
   4.500   1.3871   0.01277   0.00558  -0.2028  0.0525  0.4321  -1.9554   0.0000   0.0000   0.0000   0.3879
   4.600   1.3975   0.01284   0.00566  -0.2027  0.0517  0.4413  -1.9896   0.0000   0.0000   0.0000   0.3866
   4.700   1.4081   0.01290   0.00575  -0.2027  0.0515  0.4548  -2.0249   0.0000   0.0000   0.0000   0.3853
   4.800   1.4184   0.01298   0.00585  -0.2026  0.0511  0.4640  -2.0600   0.0000   0.0000   0.0000   0.3840
   4.900   1.4286   0.01306   0.00594  -0.2025  0.0506  0.4747  -2.0952   0.0000   0.0000   0.0000   0.3828
   5.000   1.4391   0.01313   0.00606  -0.2024  0.0496  0.4937  -2.1311   0.0000   0.0000   0.0000   0.3816
   5.100   1.4489   0.01324   0.00617  -0.2022  0.0482  0.5032  -2.1663   0.0000   0.0000   0.0000   0.3803
   5.200   1.4590   0.01334   0.00630  -0.2020  0.0464  0.5211  -2.2021   0.0000   0.0000   0.0000   0.3791
   5.300   1.4685   0.01346   0.00642  -0.2018  0.0446  0.5297  -2.2370   0.0000   0.0000   0.0000   0.3779
   5.400   1.4778   0.01359   0.00654  -0.2015  0.0431  0.5322  -2.2715   0.0000   0.0000   0.0000   0.3766
   5.500   1.4872   0.01371   0.00666  -0.2012  0.0415  0.5346  -2.3062   0.0000   0.0000   0.0000   0.3754
   5.600   1.4967   0.01382   0.00677  -0.2009  0.0399  0.5392  -2.3410   0.0000   0.0000   0.0000   0.3742
   5.700   1.5063   0.01392   0.00687  -0.2007  0.0385  0.5437  -2.3761   0.0000   0.0000   0.0000   0.3730
   5.800   1.5160   0.01402   0.00697  -0.2004  0.0381  0.5480  -2.4121   0.0000   0.0000   0.0000   0.3719
   5.900   1.5257   0.01411   0.00708  -0.2002  0.0378  0.5524  -2.4483   0.0000   0.0000   0.0000   0.3707
   6.000   1.5348   0.01424   0.00722  -0.1999  0.0365  0.5583  -2.4862   0.0000   0.0000   0.0000   0.3696
   6.100   1.5437   0.01437   0.00734  -0.1995  0.0350  0.5623  -2.5233   0.0000   0.0000   0.0000   0.3684
   6.200   1.5495   0.01471   0.00761  -0.1986  0.0264  0.5651  -2.5614   0.0000   0.0000   0.0000   0.3672
   6.300   1.5572   0.01493   0.00781  -0.1980  0.0226  0.5744  -2.5873   0.0000   0.0000   0.0000   0.3660
   6.400   1.5653   0.01511   0.00799  -0.1975  0.0191  0.5840  -2.6109   0.0000   0.0000   0.0000   0.3649
   6.500   1.5741   0.01524   0.00813  -0.1971  0.0170  0.5918  -2.6428   0.0000   0.0000   0.0000   0.3637
   6.600   1.5829   0.01537   0.00826  -0.1967  0.0164  0.5969  -2.6772   0.0000   0.0000   0.0000   0.3626
   6.800   1.5915   0.01603   0.00892  -0.1942  0.0045  0.6116  -2.7393   0.0000   0.0000   0.0000   0.3601
   6.900   1.5986   0.01618   0.00908  -0.1935  0.0043  0.6188  -2.7725   0.0000   0.0000   0.0000   0.3589
   7.000   1.6057   0.01634   0.00925  -0.1928  0.0042  0.6245  -2.8058   0.0000   0.0000   0.0000   0.3578
   7.100   1.6126   0.01649   0.00941  -0.1920  0.0040  0.6283  -2.8390   0.0000   0.0000   0.0000   0.3566
   7.200   1.6197   0.01665   0.00957  -0.1913  0.0038  0.6342  -2.8726   0.0000   0.0000   0.0000   0.3555
   7.300   1.6271   0.01680   0.00974  -0.1907  0.0036  0.6427  -2.9064   0.0000   0.0000   0.0000   0.3544
   7.400   1.6346   0.01695   0.00990  -0.1901  0.0035  0.6493  -2.9399   0.0000   0.0000   0.0000   0.3533
   7.500   1.6418   0.01710   0.01007  -0.1894  0.0033  0.6546  -2.9730   0.0000   0.0000   0.0000   0.3523
   7.600   1.6489   0.01726   0.01023  -0.1887  0.0031  0.6588  -3.0059   0.0000   0.0000   0.0000   0.3512
   7.800   1.6633   0.01759   0.01058  -0.1874  0.0026  0.6709  -3.0719   0.0000   0.0000   0.0000   0.3491
   7.900   1.6705   0.01775   0.01076  -0.1868  0.0023  0.6767  -3.1052   0.0000   0.0000   0.0000   0.3480
   8.000   1.6775   0.01792   0.01094  -0.1861  0.0021  0.6816  -3.1384   0.0000   0.0000   0.0000   0.3470
   8.100   1.6843   0.01810   0.01112  -0.1854  0.0018  0.6857  -3.1716   0.0000   0.0000   0.0000   0.3459
   8.200   1.6912   0.01828   0.01131  -0.1847  0.0015  0.6889  -3.2050   0.0000   0.0000   0.0000   0.3449
   8.300   1.6979   0.01847   0.01150  -0.1840  0.0014  0.6913  -3.2383   0.0000   0.0000   0.0000   0.3439
   8.600   1.7180   0.01908   0.01218  -0.1820  0.0014  0.7087  -3.3395   0.0000   0.0000   0.0000   0.3409
   8.700   1.7245   0.01930   0.01241  -0.1812  0.0014  0.7137  -3.3730   0.0000   0.0000   0.0000   0.3399
   8.800   1.7308   0.01952   0.01265  -0.1805  0.0013  0.7183  -3.4063   0.0000   0.0000   0.0000   0.3389
   9.100   1.7490   0.02025   0.01344  -0.1783  0.0013  0.7401  -3.5051   0.0000   0.0000   0.0000   0.3360
   9.200   1.7550   0.02051   0.01372  -0.1775  0.0013  0.7468  -3.5382   0.0000   0.0000   0.0000   0.3350
   9.300   1.7609   0.02078   0.01401  -0.1768  0.0013  0.7540  -3.5711   0.0000   0.0000   0.0000   0.3341
   9.400   1.7668   0.02106   0.01432  -0.1761  0.0013  0.7636  -3.6040   0.0000   0.0000   0.0000   0.3331
   9.500   1.7726   0.02134   0.01463  -0.1753  0.0013  0.7725  -3.6371   0.0000   0.0000   0.0000   0.3322
   9.600   1.7785   0.02163   0.01495  -0.1746  0.0013  0.7816  -3.6794   0.0000   0.0000   0.0000   0.3313
   9.700   1.7844   0.02193   0.01528  -0.1739  0.0013  0.7936  -3.7217   0.0000   0.0000   0.0000   0.3304
   9.800   1.7898   0.02224   0.01562  -0.1732  0.0013  0.8038  -3.7628   0.0000   0.0000   0.0000   0.3295
   9.900   1.7956   0.02256   0.01598  -0.1725  0.0013  0.8166  -3.8049   0.0000   0.0000   0.0000   0.3286
  10.000   1.8013   0.02288   0.01633  -0.1718  0.0013  0.8292  -3.8470   0.0000   0.0000   0.0000   0.3277
  10.100   1.8071   0.02320   0.01671  -0.1712  0.0013  0.8461  -3.8892   0.0000   0.0000   0.0000   0.3269
  10.200   1.8127   0.02355   0.01711  -0.1705  0.0013  0.8688  -3.9306   0.0000   0.0000   0.0000   0.3260
