XFLR5 v6.02 Beta

 Calculated polar for: WORTMANN FX 63-137

 1 1 Reynolds number fixed          Mach number fixed         

 xtrf =   1.000 (top)        1.000 (bottom)
 Mach =   0.000     Re =    15.000 e 6     Ncrit =   9.000

  alpha     CL        CD       CDp       CM    Top Xtr Bot Xtr   Cpmin    Chinge    XCp    
 ------- -------- --------- --------- -------- ------- ------- -------- --------- ---------
 -20.000  -1.0742   0.04997   0.04716  -0.1491  0.7642  0.0032  -23.1094   0.0000   0.0783
 -19.500  -1.0981   0.04011   0.03709  -0.1580  0.7414  0.0033  -23.2520   0.0000   0.0751
 -19.000  -1.1059   0.03307   0.02989  -0.1643  0.7200  0.0033  -23.0607   0.0000   0.0721
 -18.500  -1.0985   0.02826   0.02491  -0.1683  0.6877  0.0033  -22.5881   0.0000   0.0688
 -18.000  -1.0865   0.02403   0.02056  -0.1717  0.6685  0.0034  -22.0342   0.0000   0.0653
 -17.500  -1.0692   0.02084   0.01730  -0.1735  0.6604  0.0034  -21.3812   0.0000   0.0623
 -17.000  -1.0304   0.01805   0.01444  -0.1782  0.6585  0.0034  -20.4812   0.0000   0.0525
 -16.500  -0.9820   0.01591   0.01207  -0.1835  0.5960  0.0035  -19.4797   0.0000   0.0391
 -16.000  -0.9313   0.01476   0.01072  -0.1861  0.5375  0.0035  -18.4363   0.0000   0.0267
 -15.500  -0.8769   0.01382   0.00971  -0.1879  0.5313  0.0036  -17.3643   0.0000   0.0126
 -14.500  -0.7670   0.01240   0.00812  -0.1904  0.4926  0.0037  -15.2807   0.0000  -0.0210
 -14.000  -0.7108   0.01181   0.00744  -0.1915  0.4724  0.0038  -14.2681   0.0000  -0.0422
 -13.500  -0.6580   0.01150   0.00683  -0.1918  0.3642  0.0038  -13.3242   0.0000  -0.0644
 -13.000  -0.6005   0.01102   0.00627  -0.1929  0.3481  0.0039  -12.3555   0.0000  -0.0944
 -12.500  -0.5419   0.01055   0.00575  -0.1940  0.3385  0.0039  -11.4091   0.0000  -0.1318
 -12.000  -0.4830   0.01010   0.00526  -0.1951  0.3368  0.0040  -10.5041   0.0000  -0.1787
 -11.500  -0.4248   0.00978   0.00486  -0.1960  0.3134  0.0041  -9.6331   0.0000  -0.2374
 -11.000  -0.3659   0.00943   0.00442  -0.1970  0.2988  0.0041  -8.8260   0.0000  -0.3165
 -10.500  -0.3080   0.00921   0.00405  -0.1977  0.2441  0.0042  -8.0613   0.0000  -0.4230
 -10.000  -0.2485   0.00891   0.00369  -0.1986  0.2253  0.0042  -7.3204   0.0000  -0.5851
  -9.500  -0.1884   0.00862   0.00335  -0.1997  0.2211  0.0043  -6.6180   0.0000  -0.8538
  -9.000  -0.1291   0.00843   0.00306  -0.2005  0.1934  0.0043  -5.9891   0.0000  -1.3622
  -8.500  -0.0693   0.00822   0.00279  -0.2014  0.1843  0.0044  -5.3308   0.0000  -2.7590
  -4.500   0.4085   0.00747   0.00180  -0.2073  0.1301  0.0045  -2.2473   0.0000   0.7659
  -3.500   0.5268   0.00745   0.00176  -0.2085  0.1237  0.0046  -1.6550   0.0000   0.6506
  -3.000   0.5845   0.00756   0.00181  -0.2088  0.1033  0.0082  -1.3783   0.0000   0.6107
  -2.500   0.6430   0.00761   0.00184  -0.2092  0.0994  0.0093  -1.1173   0.0000   0.5778
  -2.000   0.7011   0.00770   0.00188  -0.2096  0.0936  0.0094  -0.9489   0.0000   0.5504
  -1.500   0.7595   0.00774   0.00192  -0.2101  0.0904  0.0148  -0.9984   0.0000   0.5271
  -1.000   0.8174   0.00782   0.00199  -0.2105  0.0848  0.0154  -1.0504   0.0000   0.5072
  -0.500   0.8751   0.00791   0.00207  -0.2108  0.0839  0.0157  -1.1027   0.0000   0.4898
   0.000   0.9326   0.00802   0.00217  -0.2111  0.0831  0.0159  -1.1552   0.0000   0.4745
   0.500   0.9898   0.00813   0.00227  -0.2114  0.0824  0.0162  -1.2085   0.0000   0.4610
   1.000   1.0471   0.00823   0.00237  -0.2117  0.0833  0.0172  -1.2712   0.0000   0.4489
   1.500   1.1038   0.00836   0.00250  -0.2119  0.0827  0.0188  -1.3462   0.0000   0.4379
   2.000   1.1584   0.00867   0.00274  -0.2117  0.0659  0.0248  -1.4204   0.0000   0.4280
   3.000   1.2625   0.00966   0.00352  -0.2102  0.0044  0.0435  -1.6103   0.0000   0.4104
   3.500   1.3171   0.00991   0.00378  -0.2101  0.0036  0.0648  -1.7263   0.0000   0.4027
   4.000   1.3710   0.01018   0.00404  -0.2098  0.0042  0.0664  -1.8583   0.0000   0.3954
   4.500   1.4240   0.01050   0.00434  -0.2094  0.0034  0.0738  -2.0322   0.0000   0.3887
   5.000   1.4769   0.01082   0.00468  -0.2090  0.0027  0.1019  -2.2115   0.0000   0.3824
   5.500   1.5290   0.01116   0.00503  -0.2084  0.0019  0.1231  -2.3938   0.0000   0.3764
   6.000   1.5824   0.01147   0.00544  -0.2083  0.0013  0.2228  -2.5825   0.0000   0.3709
   6.500   1.6335   0.01184   0.00584  -0.2076  0.0013  0.2672  -2.7727   0.0000   0.3656
   7.000   1.6840   0.01224   0.00628  -0.2069  0.0013  0.3111  -2.9660   0.0000   0.3605
   7.500   1.7352   0.01262   0.00679  -0.2064  0.0012  0.4151  -3.1650   0.0000   0.3557
   8.000   1.7804   0.01316   0.00726  -0.2046  0.0012  0.3680  -3.3573   0.0000   0.3508
   8.500   1.8281   0.01364   0.00784  -0.2035  0.0012  0.4557  -3.5583   0.0000   0.3463
   9.000   1.8717   0.01422   0.00844  -0.2015  0.0012  0.4802  -3.7875   0.0000   0.3417
   9.500   1.9058   0.01485   0.00910  -0.1976  0.0012  0.4987  -4.0302   0.0000   0.3368
  10.000   1.9388   0.01557   0.00988  -0.1937  0.0011  0.5340  -4.4313   0.0000   0.3321
  10.500   1.9704   0.01642   0.01077  -0.1896  0.0011  0.5598  -4.9315   0.0000   0.3275
  11.000   2.0013   0.01739   0.01180  -0.1857  0.0011  0.5895  -5.4495   0.0000   0.3230
  11.500   2.0301   0.01853   0.01300  -0.1817  0.0011  0.6283  -5.9758   0.0000   0.3187
  12.000   2.0579   0.01985   0.01438  -0.1778  0.0011  0.6603  -6.5152   0.0000   0.3146
  12.500   2.0842   0.02135   0.01595  -0.1740  0.0010  0.6933  -7.0840   0.0000   0.3106
  13.000   2.1071   0.02312   0.01779  -0.1700  0.0010  0.7211  -7.6352   0.0000   0.3067
  13.500   2.1282   0.02523   0.02000  -0.1662  0.0009  0.7735  -8.1911   0.0000   0.3030
  14.000   2.1501   0.02760   0.02250  -0.1631  0.0009  0.8471  -8.7702   0.0000   0.2996
  15.000   2.1860   0.03330   0.02848  -0.1570  0.0009  1.0000  -9.9165   0.0000   0.2932
  15.500   2.1983   0.03678   0.03202  -0.1538  0.0008  1.0000  -10.4679   0.0000   0.2901
  16.000   2.2085   0.04054   0.03584  -0.1509  0.0008  1.0000  -11.0161   0.0000   0.2872
  16.500   2.2163   0.04476   0.04013  -0.1482  0.0008  1.0000  -11.5556   0.0000   0.2844
  17.000   2.2251   0.04915   0.04458  -0.1459  0.0008  1.0000  -12.1150   0.0000   0.2818
  17.500   2.2276   0.05450   0.05001  -0.1439  0.0008  1.0000  -12.6288   0.0000   0.2794
  18.000   2.2272   0.06041   0.05601  -0.1422  0.0007  1.0000  -13.1262   0.0000   0.2773
  18.500   2.2251   0.06668   0.06237  -0.1410  0.0007  1.0000  -13.6139   0.0000   0.2754
  19.000   2.2219   0.07318   0.06896  -0.1401  0.0007  1.0000  -14.0964   0.0000   0.2736
  19.500   2.2206   0.07936   0.07523  -0.1395  0.0007  1.0000  -14.6025   0.0000   0.2719
  20.000   2.2071   0.08726   0.08324  -0.1395  0.0007  1.0000  -14.9903   0.0000   0.2707


