XFLR5 v6.02 Beta

 Calculated polar for: WORTMANN FX 63-137

 1 1 Reynolds number fixed          Mach number fixed         

 xtrf =   1.000 (top)        1.000 (bottom)
 Mach =   0.000     Re =    13.500 e 6     Ncrit =   9.000

  alpha     CL        CD       CDp       CM    Top Xtr Bot Xtr   Cpmin    Chinge    XCp    
 ------- -------- --------- --------- -------- ------- ------- -------- --------- ---------
 -20.000  -0.9598   0.06594   0.06327  -0.1362  0.7429  0.0033  -20.9229   0.0000   0.0730
 -19.500  -1.0454   0.04723   0.04434  -0.1512  0.7504  0.0033  -22.2615   0.0000   0.0733
 -19.000  -1.0664   0.03798   0.03489  -0.1594  0.7347  0.0033  -22.3384   0.0000   0.0704
 -18.500  -1.0705   0.03144   0.02821  -0.1652  0.7198  0.0034  -22.0837   0.0000   0.0672
 -18.000  -1.0632   0.02647   0.02311  -0.1696  0.7011  0.0034  -21.6223   0.0000   0.0634
 -17.500  -1.0462   0.02292   0.01943  -0.1720  0.6807  0.0034  -20.9941   0.0000   0.0597
 -17.000  -1.0229   0.01981   0.01623  -0.1748  0.6699  0.0035  -20.2859   0.0000   0.0543
 -16.000  -0.3456   0.10970   0.10665  -0.1072  0.3584  0.0039  -7.7475   0.0000  -0.1066
 -15.500  -0.3400   0.10293   0.09986  -0.1110  0.3513  0.0040  -7.6818   0.0000  -0.1221
 -15.000  -0.3423   0.09434   0.09125  -0.1161  0.3503  0.0040  -7.7777   0.0000  -0.1331
 -13.500  -0.6582   0.01185   0.00723  -0.1912  0.4002  0.0039  -13.2614   0.0000  -0.0633
 -13.000  -0.6015   0.01136   0.00662  -0.1922  0.3689  0.0039  -12.3036   0.0000  -0.0927
 -12.500  -0.5437   0.01087   0.00605  -0.1932  0.3538  0.0040  -11.3675   0.0000  -0.1292
 -12.000  -0.4850   0.01040   0.00552  -0.1944  0.3392  0.0040  -10.4545   0.0000  -0.1755
 -11.500  -0.4258   0.00995   0.00504  -0.1956  0.3378  0.0041  -9.5604   0.0000  -0.2353
 -11.000  -0.3662   0.00952   0.00457  -0.1967  0.3366  0.0042  -8.7230   0.0000  -0.3154
 -10.500  -0.3087   0.00929   0.00417  -0.1974  0.2775  0.0042  -7.9688   0.0000  -0.4206
 -10.000  -0.2503   0.00906   0.00380  -0.1982  0.2385  0.0043  -7.2396   0.0000  -0.5775
  -9.500  -0.1903   0.00875   0.00344  -0.1993  0.2246  0.0044  -6.5319   0.0000  -0.8406
  -9.000  -0.1300   0.00847   0.00310  -0.2003  0.2199  0.0044  -5.8731   0.0000  -1.3495
  -8.500  -0.0702   0.00819   0.00277  -0.2015  0.1927  0.0046  -5.1019   0.0000  -2.7220
  -8.000  -0.0101   0.00801   0.00249  -0.2023  0.1840  0.0046  -4.5607   0.0000  -20.4114
  -7.500   0.0499   0.00788   0.00229  -0.2031  0.1753  0.0046  -4.1669   0.0000   4.4451
  -7.000   0.1101   0.00774   0.00212  -0.2039  0.1702  0.0046  -3.7881   0.0000   2.1538
  -6.500   0.1698   0.00766   0.00204  -0.2046  0.1694  0.0046  -3.4164   0.0000   1.4860
  -6.000   0.2288   0.00765   0.00203  -0.2051  0.1683  0.0046  -3.0411   0.0000   1.1673
  -4.500   0.4067   0.00758   0.00183  -0.2069  0.1349  0.0045  -2.2293   0.0000   0.7672
  -4.000   0.4659   0.00757   0.00180  -0.2075  0.1291  0.0045  -1.9463   0.0000   0.7018
  -3.500   0.5249   0.00757   0.00180  -0.2080  0.1241  0.0046  -1.6558   0.0000   0.6512
  -3.000   0.5837   0.00759   0.00181  -0.2086  0.1220  0.0086  -1.3790   0.0000   0.6109
  -2.500   0.6413   0.00772   0.00188  -0.2089  0.1020  0.0099  -1.1244   0.0000   0.5781
  -2.000   0.6992   0.00781   0.00192  -0.2092  0.0960  0.0099  -0.9477   0.0000   0.5506
  -1.500   0.7576   0.00786   0.00195  -0.2097  0.0928  0.0150  -0.9971   0.0000   0.5273
  -1.000   0.8154   0.00795   0.00202  -0.2101  0.0865  0.0155  -1.0490   0.0000   0.5073
  -0.500   0.8731   0.00804   0.00211  -0.2104  0.0842  0.0158  -1.1013   0.0000   0.4899
   0.000   0.9305   0.00815   0.00220  -0.2107  0.0835  0.0160  -1.1537   0.0000   0.4746
   0.500   0.9878   0.00826   0.00231  -0.2110  0.0828  0.0163  -1.2069   0.0000   0.4610
   1.000   1.0450   0.00836   0.00241  -0.2112  0.0835  0.0172  -1.2695   0.0000   0.4489
   1.500   1.1016   0.00850   0.00255  -0.2114  0.0829  0.0192  -1.3442   0.0000   0.4379
   2.000   1.1579   0.00866   0.00271  -0.2115  0.0813  0.0257  -1.4198   0.0000   0.4280
   2.500   1.2093   0.00922   0.00312  -0.2107  0.0378  0.0382  -1.5039   0.0000   0.4188
   3.000   1.2644   0.00944   0.00332  -0.2106  0.0366  0.0465  -1.6124   0.0000   0.4105
   3.500   1.3145   0.01007   0.00384  -0.2096  0.0040  0.0654  -1.7231   0.0000   0.4026
   4.000   1.3684   0.01034   0.00411  -0.2093  0.0061  0.0668  -1.8556   0.0000   0.3954
   4.500   1.4213   0.01066   0.00442  -0.2088  0.0038  0.0768  -2.0275   0.0000   0.3886
   5.000   1.4740   0.01100   0.00477  -0.2084  0.0029  0.1028  -2.2061   0.0000   0.3823
   5.500   1.5264   0.01133   0.00513  -0.2079  0.0022  0.1448  -2.3887   0.0000   0.3763
   6.000   1.5799   0.01163   0.00555  -0.2078  0.0013  0.2495  -2.5774   0.0000   0.3708
   6.500   1.6314   0.01200   0.00597  -0.2073  0.0013  0.3065  -2.7679   0.0000   0.3655
   7.000   1.6812   0.01242   0.00642  -0.2064  0.0013  0.3394  -2.9600   0.0000   0.3604
   7.500   1.7320   0.01282   0.00693  -0.2059  0.0012  0.4363  -3.1582   0.0000   0.3556
   8.000   1.7766   0.01338   0.00742  -0.2039  0.0012  0.3919  -3.3492   0.0000   0.3506
   8.500   1.8238   0.01387   0.00802  -0.2027  0.0012  0.4722  -3.5488   0.0000   0.3461
   9.000   1.8668   0.01446   0.00863  -0.2006  0.0012  0.4977  -3.7734   0.0000   0.3415
   9.500   1.8980   0.01513   0.00932  -0.1961  0.0012  0.5115  -4.0078   0.0000   0.3365
  10.000   1.9311   0.01588   0.01014  -0.1923  0.0011  0.5501  -4.3859   0.0000   0.3318
  10.500   1.9627   0.01677   0.01106  -0.1883  0.0011  0.5676  -4.8835   0.0000   0.3272
  11.000   1.9939   0.01777   0.01215  -0.1845  0.0011  0.6188  -5.4002   0.0000   0.3228
  11.500   2.0225   0.01896   0.01339  -0.1805  0.0011  0.6489  -5.9224   0.0000   0.3185
  12.000   2.0502   0.02033   0.01484  -0.1767  0.0011  0.6885  -6.4581   0.0000   0.3144
  12.500   2.0750   0.02193   0.01650  -0.1727  0.0010  0.7118  -7.0159   0.0000   0.3104
  13.000   2.0971   0.02380   0.01845  -0.1688  0.0010  0.7488  -7.5597   0.0000   0.3065
  13.500   2.1193   0.02595   0.02071  -0.1653  0.0009  0.8084  -8.1206   0.0000   0.3029
  14.000   2.1437   0.02829   0.02333  -0.1627  0.0009  1.0000  -8.7143   0.0000   0.2997
  14.500   2.1601   0.03111   0.02619  -0.1592  0.0009  1.0000  -9.2675   0.0000   0.2963
  15.000   2.1748   0.03426   0.02940  -0.1560  0.0009  1.0000  -9.8192   0.0000   0.2931
  15.500   2.1867   0.03782   0.03303  -0.1529  0.0008  1.0000  -10.3645   0.0000   0.2900
  16.000   2.1951   0.04179   0.03706  -0.1499  0.0008  1.0000  -10.8947   0.0000   0.2871
  16.500   2.2012   0.04632   0.04166  -0.1473  0.0008  1.0000  -11.4163   0.0000   0.2845
  17.000   2.2087   0.05093   0.04635  -0.1451  0.0008  1.0000  -11.9604   0.0000   0.2819
  17.500   2.2150   0.05587   0.05135  -0.1433  0.0008  1.0000  -12.5050   0.0000   0.2795
  18.000   2.2146   0.06183   0.05740  -0.1417  0.0007  1.0000  -12.9969   0.0000   0.2774
  18.500   2.2110   0.06834   0.06401  -0.1406  0.0007  1.0000  -13.4689   0.0000   0.2756
  19.000   2.2044   0.07540   0.07117  -0.1399  0.0007  1.0000  -13.9140   0.0000   0.2740
  19.500   2.2056   0.08107   0.07692  -0.1393  0.0007  1.0000  -14.4417   0.0000   0.2722
  20.000   2.1927   0.08907   0.08503  -0.1394  0.0007  1.0000  -14.8303   0.0000   0.2711


