XFLR5 v6.02 Beta

 Calculated polar for: WORTMANN FX 63-137

 1 1 Reynolds number fixed          Mach number fixed         

 xtrf =   1.000 (top)        1.000 (bottom)
 Mach =   0.000     Re =    13.000 e 6     Ncrit =   9.000

  alpha     CL        CD       CDp       CM    Top Xtr Bot Xtr   Cpmin    Chinge    XCp    
 ------- -------- --------- --------- -------- ------- ------- -------- --------- ---------
 -19.500  -1.0159   0.05127   0.04845  -0.1476  0.7560  0.0033  -21.7058   0.0000   0.0721
 -19.000  -1.0527   0.03964   0.03660  -0.1578  0.7428  0.0033  -22.0840   0.0000   0.0697
 -18.500  -1.0605   0.03260   0.02939  -0.1641  0.7218  0.0034  -21.8986   0.0000   0.0665
 -18.000  -1.0513   0.02780   0.02450  -0.1682  0.7168  0.0034  -21.4126   0.0000   0.0627
 -17.500  -1.0382   0.02369   0.02023  -0.1715  0.6882  0.0034  -20.8542   0.0000   0.0588
 -17.000  -1.0186   0.02046   0.01691  -0.1739  0.6779  0.0035  -20.1933   0.0000   0.0545
 -16.500  -0.9773   0.01786   0.01420  -0.1786  0.6580  0.0035  -19.2819   0.0000   0.0431
 -16.000  -0.9267   0.01586   0.01196  -0.1840  0.5965  0.0036  -18.2736   0.0000   0.0278
 -15.500  -0.8747   0.01475   0.01073  -0.1863  0.5701  0.0036  -17.2375   0.0000   0.0139
 -15.000  -0.8213   0.01386   0.00973  -0.1878  0.5498  0.0037  -16.2036   0.0000  -0.0016
 -14.500  -0.7660   0.01306   0.00885  -0.1893  0.5326  0.0038  -15.1758   0.0000  -0.0199
 -13.500  -0.6587   0.01201   0.00738  -0.1909  0.4015  0.0039  -13.2437   0.0000  -0.0626
 -13.000  -0.6007   0.01141   0.00673  -0.1921  0.3997  0.0039  -12.2753   0.0000  -0.0931
 -12.500  -0.5441   0.01097   0.00616  -0.1930  0.3614  0.0040  -11.3503   0.0000  -0.1286
 -12.000  -0.4857   0.01050   0.00561  -0.1942  0.3458  0.0040  -10.4419   0.0000  -0.1744
 -11.500  -0.4265   0.01004   0.00511  -0.1953  0.3388  0.0041  -9.5501   0.0000  -0.2340
 -11.000  -0.3669   0.00960   0.00463  -0.1965  0.3369  0.0042  -8.7004   0.0000  -0.3137
 -10.500  -0.3094   0.00936   0.00422  -0.1972  0.2792  0.0042  -7.9404   0.0000  -0.4185
 -10.000  -0.2508   0.00910   0.00384  -0.1981  0.2431  0.0043  -7.2094   0.0000  -0.5754
  -9.500  -0.1910   0.00879   0.00347  -0.1992  0.2297  0.0044  -6.4857   0.0000  -0.8363
  -4.500   0.4061   0.00762   0.00184  -0.2067  0.1367  0.0045  -2.2192   0.0000   0.7676
  -4.000   0.4653   0.00761   0.00181  -0.2073  0.1310  0.0045  -1.9449   0.0000   0.7021
  -3.500   0.5243   0.00761   0.00181  -0.2079  0.1254  0.0046  -1.6559   0.0000   0.6514
  -2.500   0.6411   0.00773   0.00187  -0.2088  0.1029  0.0137  -1.1239   0.0000   0.5781
  -2.000   0.6989   0.00783   0.00191  -0.2092  0.0969  0.0138  -0.9475   0.0000   0.5507
  -1.500   0.7569   0.00791   0.00197  -0.2095  0.0937  0.0150  -0.9966   0.0000   0.5274
  -1.000   0.8147   0.00800   0.00204  -0.2099  0.0873  0.0155  -1.0485   0.0000   0.5073
  -0.500   0.8724   0.00809   0.00212  -0.2102  0.0843  0.0158  -1.1007   0.0000   0.4899
   0.000   0.9298   0.00819   0.00222  -0.2105  0.0836  0.0160  -1.1532   0.0000   0.4746
   0.500   0.9870   0.00831   0.00233  -0.2108  0.0829  0.0163  -1.2063   0.0000   0.4610
   1.000   1.0442   0.00841   0.00243  -0.2111  0.0836  0.0172  -1.2688   0.0000   0.4488
   1.500   1.1008   0.00855   0.00256  -0.2112  0.0830  0.0193  -1.3434   0.0000   0.4379
   2.000   1.1571   0.00871   0.00272  -0.2114  0.0817  0.0259  -1.4190   0.0000   0.4280
   2.500   1.2084   0.00927   0.00314  -0.2105  0.0379  0.0382  -1.5030   0.0000   0.4188
   3.000   1.2635   0.00950   0.00335  -0.2104  0.0366  0.0472  -1.6112   0.0000   0.4104
   3.500   1.3136   0.01013   0.00387  -0.2094  0.0041  0.0656  -1.7219   0.0000   0.4026
   4.000   1.3697   0.01020   0.00397  -0.2096  0.0169  0.0670  -1.8482   0.0000   0.3954
   4.500   1.4203   0.01072   0.00444  -0.2087  0.0039  0.0779  -2.0259   0.0000   0.3886
   5.000   1.4729   0.01106   0.00480  -0.2082  0.0030  0.1031  -2.2042   0.0000   0.3822
   5.500   1.5252   0.01140   0.00516  -0.2077  0.0023  0.1452  -2.3866   0.0000   0.3763
   6.000   1.5787   0.01170   0.00559  -0.2076  0.0014  0.2533  -2.5752   0.0000   0.3708
   6.500   1.6302   0.01207   0.00601  -0.2070  0.0013  0.3077  -2.7655   0.0000   0.3655
   7.500   1.7308   0.01289   0.00699  -0.2056  0.0012  0.4470  -3.1555   0.0000   0.3556
   8.000   1.7754   0.01345   0.00748  -0.2037  0.0012  0.4024  -3.3466   0.0000   0.3506
   8.500   1.8224   0.01395   0.00808  -0.2024  0.0012  0.4846  -3.5457   0.0000   0.3461
   9.000   1.8644   0.01455   0.00870  -0.2001  0.0012  0.4989  -3.7665   0.0000   0.3414
   9.500   1.8955   0.01522   0.00940  -0.1957  0.0012  0.5193  -4.0007   0.0000   0.3364
  10.000   1.9286   0.01599   0.01023  -0.1918  0.0011  0.5561  -4.3709   0.0000   0.3317
  10.500   1.9602   0.01689   0.01117  -0.1879  0.0011  0.5775  -4.8676   0.0000   0.3271
  11.000   1.9913   0.01791   0.01227  -0.1841  0.0011  0.6262  -5.3825   0.0000   0.3227
  11.500   2.0198   0.01911   0.01354  -0.1801  0.0011  0.6558  -5.9030   0.0000   0.3184
  12.000   2.0467   0.02052   0.01501  -0.1762  0.0011  0.6906  -6.4326   0.0000   0.3143
  12.500   2.0715   0.02214   0.01670  -0.1723  0.0010  0.7165  -6.9904   0.0000   0.3103
  13.000   2.0938   0.02403   0.01867  -0.1684  0.0010  0.7578  -7.5343   0.0000   0.3065
  13.500   2.1166   0.02620   0.02096  -0.1650  0.0009  0.8242  -8.0985   0.0000   0.3029
  14.000   2.1400   0.02857   0.02359  -0.1623  0.0009  1.0000  -8.6842   0.0000   0.2996
  14.500   2.1564   0.03141   0.02648  -0.1589  0.0009  1.0000  -9.2359   0.0000   0.2962
  15.000   2.1709   0.03459   0.02972  -0.1556  0.0009  1.0000  -9.7853   0.0000   0.2930
  15.500   2.1826   0.03819   0.03338  -0.1526  0.0008  1.0000  -10.3283   0.0000   0.2900
  16.000   2.1907   0.04220   0.03746  -0.1496  0.0008  1.0000  -10.8545   0.0000   0.2871
  16.500   2.1967   0.04677   0.04210  -0.1470  0.0008  1.0000  -11.3742   0.0000   0.2845
  17.000   2.2022   0.05167   0.04708  -0.1449  0.0008  1.0000  -11.8992   0.0000   0.2820
  17.500   2.2095   0.05649   0.05197  -0.1431  0.0008  1.0000  -12.4512   0.0000   0.2796
  18.000   2.2100   0.06235   0.05791  -0.1416  0.0007  1.0000  -12.9498   0.0000   0.2775
  18.500   2.2063   0.06890   0.06456  -0.1405  0.0007  1.0000  -13.4191   0.0000   0.2757
  19.000   2.1995   0.07600   0.07176  -0.1398  0.0007  1.0000  -13.8611   0.0000   0.2741
  19.500   2.1907   0.08315   0.07903  -0.1395  0.0007  1.0000  -14.2879   0.0000   0.2727
  20.000   2.1874   0.08974   0.08571  -0.1394  0.0007  1.0000  -14.7711   0.0000   0.2712


