XFLR5 v6.02 Beta

 Calculated polar for: WORTMANN FX 63-137

 1 1 Reynolds number fixed          Mach number fixed         

 xtrf =   1.000 (top)        1.000 (bottom)
 Mach =   0.000     Re =    20.000 e 6     Ncrit =   9.000

  alpha     CL        CD       CDp       CM    Top Xtr Bot Xtr   Cpmin    Chinge    XCp    
 ------- -------- --------- --------- -------- ------- ------- -------- --------- ---------
 -20.000  -1.1553   0.03887   0.03576  -0.1603  0.6893  0.0029  -24.6804   0.0000   0.0796
 -19.500  -1.1640   0.03206   0.02878  -0.1662  0.6655  0.0030  -24.4798   0.0000   0.0773
 -19.000  -1.1582   0.02712   0.02375  -0.1703  0.6572  0.0030  -24.0138   0.0000   0.0745
 -18.500  -1.1467   0.02320   0.01965  -0.1730  0.6150  0.0031  -23.4389   0.0000   0.0720
 -18.000  -1.1305   0.01992   0.01630  -0.1749  0.6043  0.0032  -22.7841   0.0000   0.0694
 -17.500  -1.0898   0.01724   0.01355  -0.1797  0.5969  0.0033  -21.8345   0.0000   0.0600
 -17.000  -1.0387   0.01517   0.01128  -0.1855  0.5406  0.0033  -20.7738   0.0000   0.0471
 -16.500  -0.9889   0.01422   0.01014  -0.1870  0.4751  0.0034  -19.7055   0.0000   0.0370
 -16.000  -0.9345   0.01333   0.00919  -0.1886  0.4661  0.0035  -18.6041   0.0000   0.0247
 -15.500  -0.8788   0.01256   0.00838  -0.1901  0.4651  0.0035  -17.5132   0.0000   0.0105
 -15.000  -0.8236   0.01196   0.00768  -0.1911  0.4356  0.0036  -16.4548   0.0000  -0.0050
 -14.500  -0.7671   0.01139   0.00703  -0.1922  0.4220  0.0037  -15.4106   0.0000  -0.0234
 -14.000  -0.7112   0.01095   0.00646  -0.1930  0.3699  0.0037  -14.4015   0.0000  -0.0442
 -13.000  -0.5969   0.01015   0.00544  -0.1947  0.2996  0.0038  -12.5207   0.0000  -0.0996
 -12.500  -0.5383   0.00977   0.00500  -0.1957  0.2875  0.0038  -11.6448   0.0000  -0.1375
 -12.000  -0.4792   0.00940   0.00459  -0.1967  0.2779  0.0039  -10.7891   0.0000  -0.1854
 -11.500  -0.4199   0.00909   0.00424  -0.1976  0.2776  0.0039  -9.9342   0.0000  -0.2472
 -11.000  -0.3619   0.00889   0.00392  -0.1983  0.2375  0.0040  -9.1362   0.0000  -0.3265
 -10.500  -0.3025   0.00864   0.00362  -0.1992  0.2204  0.0040  -8.3539   0.0000  -0.4402
 -10.000  -0.2434   0.00845   0.00336  -0.1999  0.1958  0.0041  -7.6050   0.0000  -0.6079
  -9.500  -0.1839   0.00824   0.00308  -0.2008  0.1868  0.0041  -6.8983   0.0000  -0.8870
  -9.000  -0.1239   0.00802   0.00282  -0.2017  0.1716  0.0042  -6.2666   0.0000  -1.4401
  -8.500  -0.0639   0.00783   0.00260  -0.2026  0.1697  0.0042  -5.6187   0.0000  -3.0332
  -8.000  -0.0038   0.00766   0.00241  -0.2034  0.1688  0.0042  -5.0109   0.0000  -54.8837
  -7.500   0.0563   0.00751   0.00224  -0.2043  0.1681  0.0043  -4.4432   0.0000   3.9883
  -7.000   0.1153   0.00746   0.00212  -0.2049  0.1441  0.0043  -3.9884   0.0000   2.0765
  -6.500   0.1751   0.00737   0.00199  -0.2056  0.1393  0.0043  -3.6340   0.0000   1.4542
  -6.000   0.2348   0.00729   0.00190  -0.2064  0.1341  0.0043  -3.2760   0.0000   1.1492
  -5.500   0.2944   0.00723   0.00182  -0.2070  0.1287  0.0044  -2.9171   0.0000   0.9681
  -5.000   0.3539   0.00719   0.00176  -0.2077  0.1241  0.0044  -2.5784   0.0000   0.8480
  -4.500   0.4134   0.00716   0.00172  -0.2084  0.1237  0.0045  -2.2576   0.0000   0.7625
  -4.000   0.4726   0.00714   0.00170  -0.2090  0.1232  0.0045  -1.9471   0.0000   0.6986
  -3.000   0.5890   0.00729   0.00174  -0.2098  0.0966  0.0070  -1.3732   0.0000   0.6097
  -2.500   0.6476   0.00733   0.00176  -0.2102  0.0932  0.0079  -1.1055   0.0000   0.5771
  -2.000   0.7060   0.00739   0.00179  -0.2107  0.0874  0.0082  -0.9520   0.0000   0.5498
  -1.500   0.7643   0.00744   0.00185  -0.2111  0.0844  0.0099  -1.0017   0.0000   0.5268
  -1.000   0.8226   0.00749   0.00190  -0.2116  0.0839  0.0151  -1.0540   0.0000   0.5069
  -0.500   0.8804   0.00758   0.00198  -0.2120  0.0830  0.0155  -1.1064   0.0000   0.4896
   0.000   0.9379   0.00768   0.00207  -0.2123  0.0821  0.0157  -1.1590   0.0000   0.4745
   0.500   0.9934   0.00795   0.00225  -0.2122  0.0620  0.0161  -1.2112   0.0000   0.4610
   1.000   1.0526   0.00789   0.00227  -0.2128  0.0822  0.0172  -1.2761   0.0000   0.4489
   1.500   1.1078   0.00816   0.00247  -0.2127  0.0657  0.0178  -1.3499   0.0000   0.4380
   2.000   1.1633   0.00839   0.00265  -0.2127  0.0564  0.0231  -1.4249   0.0000   0.4281
   2.500   1.2141   0.00901   0.00313  -0.2117  0.0057  0.0378  -1.5083   0.0000   0.4189
   3.000   1.2689   0.00926   0.00336  -0.2115  0.0034  0.0396  -1.6183   0.0000   0.4106
   3.500   1.3234   0.00952   0.00360  -0.2114  0.0028  0.0493  -1.7345   0.0000   0.4028
   4.000   1.3778   0.00977   0.00386  -0.2112  0.0033  0.0652  -1.8694   0.0000   0.3957
   4.500   1.4312   0.01007   0.00415  -0.2108  0.0027  0.0672  -2.0453   0.0000   0.3889
   5.000   1.4842   0.01038   0.00445  -0.2104  0.0020  0.0806  -2.2249   0.0000   0.3826
   5.500   1.5369   0.01069   0.00477  -0.2100  0.0014  0.1077  -2.4086   0.0000   0.3767
   6.000   1.5902   0.01099   0.00515  -0.2097  0.0013  0.1941  -2.5979   0.0000   0.3712
   6.500   1.6412   0.01137   0.00553  -0.2090  0.0012  0.2132  -2.7884   0.0000   0.3658
   7.000   1.6920   0.01175   0.00594  -0.2083  0.0012  0.2501  -2.9829   0.0000   0.3607
   7.500   1.7424   0.01214   0.00639  -0.2076  0.0012  0.3101  -3.1809   0.0000   0.3559
   8.000   1.7889   0.01264   0.00684  -0.2060  0.0012  0.2753  -3.3763   0.0000   0.3510
   8.500   1.8388   0.01306   0.00739  -0.2054  0.0012  0.3973  -3.5817   0.0000   0.3466
  10.000   1.9592   0.01479   0.00925  -0.1974  0.0011  0.5095  -4.5507   0.0000   0.3329
  10.500   1.9905   0.01555   0.01003  -0.1932  0.0011  0.5224  -5.0557   0.0000   0.3282
  11.000   2.0215   0.01643   0.01094  -0.1891  0.0011  0.5368  -5.5813   0.0000   0.3237
  11.500   2.0514   0.01743   0.01199  -0.1851  0.0011  0.5652  -6.1213   0.0000   0.3194
  12.000   2.0798   0.01860   0.01321  -0.1810  0.0010  0.5964  -6.6778   0.0000   0.3152
  12.500   2.1070   0.01994   0.01462  -0.1771  0.0010  0.6308  -7.2509   0.0000   0.3112
  13.000   2.1323   0.02153   0.01629  -0.1733  0.0010  0.6800  -7.8248   0.0000   0.3073
  13.500   2.1529   0.02340   0.01822  -0.1690  0.0009  0.7041  -8.3850   0.0000   0.3034
  14.000   2.1741   0.02554   0.02045  -0.1654  0.0009  0.7469  -8.9654   0.0000   0.2998
  14.500   2.1944   0.02797   0.02298  -0.1621  0.0009  0.8003  -9.5568   0.0000   0.2964
  15.000   2.2179   0.03068   0.02596  -0.1599  0.0009  1.0000  -10.1875   0.0000   0.2935
  15.500   2.2322   0.03382   0.02914  -0.1566  0.0008  1.0000  -10.7640   0.0000   0.2903
  16.000   2.2436   0.03738   0.03276  -0.1535  0.0008  1.0000  -11.3311   0.0000   0.2873
  16.500   2.2517   0.04132   0.03677  -0.1505  0.0008  1.0000  -11.8821   0.0000   0.2844
  17.000   2.2574   0.04585   0.04136  -0.1478  0.0008  1.0000  -12.4228   0.0000   0.2817
  17.500   2.2689   0.04993   0.04549  -0.1457  0.0008  1.0000  -13.0273   0.0000   0.2791
  18.000   2.2703   0.05542   0.05105  -0.1437  0.0007  1.0000  -13.5521   0.0000   0.2768
  18.500   2.2688   0.06145   0.05717  -0.1421  0.0007  1.0000  -14.0560   0.0000   0.2747
  19.000   2.2644   0.06801   0.06382  -0.1409  0.0007  1.0000  -14.5382   0.0000   0.2728
  19.500   2.2566   0.07515   0.07105  -0.1402  0.0006  1.0000  -14.9918   0.0000   0.2712
  20.000   2.2575   0.08078   0.07675  -0.1395  0.0006  1.0000  -15.5390   0.0000   0.2694


