XFLR5 v6.02 Beta

 Calculated polar for: WORTMANN FX 63-137

 1 1 Reynolds number fixed          Mach number fixed         

 xtrf =   1.000 (top)        1.000 (bottom)
 Mach =   0.000     Re =     5.600 e 6     Ncrit =   9.000

  alpha     CL        CD       CDp       CM    Top Xtr Bot Xtr   Cpmin    Chinge    XCp    
 ------- -------- --------- --------- -------- ------- ------- -------- --------- ---------
 -16.500  -0.5730   0.07691   0.07455  -0.1250  0.7763  0.0042  -12.0092   0.0000  -0.0037
 -16.000  -0.4054   0.09844   0.09605  -0.1115  0.6819  0.0043  -8.7285   0.0000  -0.0672
 -15.500  -0.3743   0.09628   0.09386  -0.1129  0.6598  0.0044  -8.1228   0.0000  -0.0946
 -15.000  -0.3577   0.09123   0.08884  -0.1159  0.6555  0.0045  -7.8158   0.0000  -0.1169
 -14.500  -0.7538   0.02099   0.01755  -0.1720  0.7345  0.0042  -14.3353   0.0000  -0.0014
 -14.000  -0.7056   0.01784   0.01426  -0.1793  0.7191  0.0042  -13.5242   0.0000  -0.0271
 -13.500  -0.6500   0.01585   0.01214  -0.1845  0.7102  0.0043  -12.6296   0.0000  -0.0568
 -13.000  -0.5988   0.01484   0.01093  -0.1861  0.6620  0.0044  -11.7607   0.0000  -0.0840
 -12.500  -0.5457   0.01435   0.01035  -0.1869  0.6180  0.0045  -10.8668   0.0000  -0.1162
  -5.500   0.2713   0.00873   0.00259  -0.2017  0.2339  0.0058  -2.5429   0.0000   1.0094
  -5.000   0.3311   0.00862   0.00245  -0.2024  0.2218  0.0055  -2.2482   0.0000   0.8732
  -4.500   0.3914   0.00850   0.00227  -0.2033  0.2192  0.0052  -1.9867   0.0000   0.7783
  -4.000   0.4502   0.00852   0.00214  -0.2039  0.1925  0.0049  -1.7669   0.0000   0.7095
  -3.500   0.5099   0.00848   0.00202  -0.2046  0.1830  0.0048  -1.6089   0.0000   0.6562
  -3.000   0.5694   0.00845   0.00201  -0.2053  0.1728  0.0148  -1.3922   0.0000   0.6142
  -2.500   0.6279   0.00848   0.00202  -0.2058  0.1687  0.0155  -1.1152   0.0000   0.5802
  -2.000   0.6838   0.00874   0.00213  -0.2058  0.1349  0.0154  -0.9380   0.0000   0.5524
  -1.500   0.7417   0.00882   0.00218  -0.2062  0.1271  0.0160  -0.9862   0.0000   0.5286
  -1.000   0.7995   0.00890   0.00224  -0.2066  0.1237  0.0163  -1.0379   0.0000   0.5081
  -0.500   0.8570   0.00900   0.00233  -0.2069  0.1213  0.0165  -1.0898   0.0000   0.4903
   1.500   1.0810   0.00979   0.00297  -0.2071  0.0864  0.0251  -1.3247   0.0000   0.4376
   2.000   1.1371   0.00994   0.00316  -0.2072  0.0842  0.0372  -1.3998   0.0000   0.4276
   2.500   1.1888   0.01045   0.00356  -0.2065  0.0558  0.0457  -1.4808   0.0000   0.4183
   3.000   1.2433   0.01071   0.00383  -0.2064  0.0491  0.0709  -1.5769   0.0000   0.4099
   3.500   1.2969   0.01103   0.00415  -0.2061  0.0430  0.1003  -1.6959   0.0000   0.4021
   4.000   1.3504   0.01130   0.00443  -0.2057  0.0429  0.1060  -1.8212   0.0000   0.3948
   4.500   1.4036   0.01161   0.00477  -0.2054  0.0375  0.1468  -1.9951   0.0000   0.3880
   5.000   1.4570   0.01190   0.00513  -0.2052  0.0357  0.2152  -2.1756   0.0000   0.3818
   5.500   1.5085   0.01245   0.00581  -0.2049  0.0166  0.3748  -2.3426   0.0000   0.3760
   6.000   1.5559   0.01319   0.00665  -0.2037  0.0031  0.4652  -2.5307   0.0000   0.3702
   6.500   1.6044   0.01367   0.00716  -0.2025  0.0022  0.4962  -2.7135   0.0000   0.3647
   7.000   1.6515   0.01419   0.00771  -0.2012  0.0016  0.5286  -2.8984   0.0000   0.3595
   7.500   1.6961   0.01476   0.00830  -0.1993  0.0013  0.5446  -3.0830   0.0000   0.3543
   8.000   1.7349   0.01539   0.00895  -0.1964  0.0013  0.5606  -3.2606   0.0000   0.3491
   8.500   1.7693   0.01611   0.00971  -0.1926  0.0013  0.5767  -3.4326   0.0000   0.3439
   9.000   1.8042   0.01691   0.01060  -0.1891  0.0013  0.6266  -3.6085   0.0000   0.3390
   9.500   1.8371   0.01785   0.01162  -0.1855  0.0012  0.6621  -3.8314   0.0000   0.3342
  10.000   1.8675   0.01895   0.01279  -0.1816  0.0012  0.6917  -4.0620   0.0000   0.3295
  10.500   1.8958   0.02025   0.01418  -0.1776  0.0012  0.7184  -4.4337   0.0000   0.3250
  11.000   1.9226   0.02179   0.01582  -0.1738  0.0012  0.7583  -4.8667   0.0000   0.3207
  11.500   1.9468   0.02368   0.01788  -0.1699  0.0012  0.8138  -5.2421   0.0000   0.3166
  14.000   2.0365   0.03718   0.03194  -0.1526  0.0010  1.0000  -7.6977   0.0000   0.2987
  14.500   2.0509   0.04064   0.03544  -0.1499  0.0010  1.0000  -8.2506   0.0000   0.2957
  15.000   2.0585   0.04491   0.03981  -0.1472  0.0009  1.0000  -8.7105   0.0000   0.2928
  15.500   2.0669   0.04941   0.04440  -0.1448  0.0009  1.0000  -9.1879   0.0000   0.2902
  16.000   2.0680   0.05503   0.05016  -0.1427  0.0009  1.0000  -9.5805   0.0000   0.2878
  16.500   2.0685   0.06096   0.05621  -0.1411  0.0009  1.0000  -10.0081   0.0000   0.2857
  17.000   2.0674   0.06728   0.06265  -0.1399  0.0009  1.0000  -10.4388   0.0000   0.2838
  17.500   2.0634   0.07413   0.06961  -0.1392  0.0008  1.0000  -10.8516   0.0000   0.2822
  18.000   2.0644   0.08014   0.07573  -0.1386  0.0008  1.0000  -11.3169   0.0000   0.2805
  18.500   2.0538   0.08797   0.08370  -0.1387  0.0008  1.0000  -11.6768   0.0000   0.2794
  19.000   2.0425   0.09627   0.09213  -0.1394  0.0008  1.0000  -12.0281   0.0000   0.2787
  19.500   2.0288   0.10508   0.10109  -0.1408  0.0008  1.0000  -12.3523   0.0000   0.2783
  20.000   2.0175   0.11361   0.10974  -0.1426  0.0007  1.0000  -12.7330   0.0000   0.2781
  20.500   2.0140   0.12067   0.11691  -0.1442  0.0007  1.0000  -13.1674   0.0000   0.2775


