XFLR5 v6.02 Beta

 Calculated polar for: WORTMANN FX 63-137

 1 1 Reynolds number fixed          Mach number fixed         

 xtrf =   1.000 (top)        1.000 (bottom)
 Mach =   0.000     Re =    10.750 e 6     Ncrit =   9.000

  alpha     CL        CD       CDp       CM    Top Xtr Bot Xtr   Cpmin    Chinge    XCp    
 ------- -------- --------- --------- -------- ------- ------- -------- --------- ---------
 -18.000  -0.9875   0.03547   0.03236  -0.1607  0.7433  0.0035  -20.2510   0.0000   0.0587
 -17.500  -0.9876   0.02939   0.02612  -0.1661  0.7253  0.0035  -19.9439   0.0000   0.0547
 -17.000  -0.9737   0.02510   0.02174  -0.1697  0.7196  0.0036  -19.4019   0.0000   0.0499
 -16.500  -0.9586   0.02151   0.01803  -0.1722  0.7026  0.0036  -18.8250   0.0000   0.0459
 -16.000  -0.9217   0.01867   0.01501  -0.1769  0.6658  0.0037  -17.9974   0.0000   0.0344
 -15.500  -0.8707   0.01632   0.01247  -0.1831  0.6256  0.0037  -17.0280   0.0000   0.0165
 -15.000  -0.8182   0.01502   0.01104  -0.1859  0.6030  0.0038  -16.0260   0.0000  -0.0001
 -14.500  -0.7636   0.01396   0.00992  -0.1879  0.5955  0.0038  -15.0188   0.0000  -0.0189
 -13.500  -0.5908   0.02957   0.02641  -0.1631  0.4311  0.0039  -11.6644   0.0000  -0.0510
 -12.500  -0.1973   0.08285   0.07976  -0.1214  0.2786  0.0044  -5.1030   0.0000  -0.4216
 -12.000  -0.1313   0.08822   0.08500  -0.1185  0.2438  0.0044  -3.9227   0.0000  -0.7292
 -11.000  -0.3699   0.00993   0.00495  -0.1956  0.3603  0.0043  -8.6514   0.0000  -0.3067
 -10.500  -0.3107   0.00952   0.00447  -0.1968  0.3386  0.0044  -7.8391   0.0000  -0.4141
  -4.000   0.4621   0.00781   0.00187  -0.2066  0.1401  0.0045  -1.9281   0.0000   0.7037
  -3.500   0.5208   0.00783   0.00187  -0.2071  0.1345  0.0058  -1.6655   0.0000   0.6526
  -3.000   0.5797   0.00785   0.00188  -0.2077  0.1240  0.0097  -1.3935   0.0000   0.6118
  -2.500   0.6387   0.00786   0.00188  -0.2083  0.1224  0.0144  -1.1242   0.0000   0.5785
  -2.000   0.6957   0.00802   0.00197  -0.2085  0.1018  0.0144  -0.9455   0.0000   0.5510
  -1.500   0.7535   0.00812   0.00203  -0.2088  0.0982  0.0152  -0.9942   0.0000   0.5276
  -1.000   0.8110   0.00823   0.00210  -0.2091  0.0922  0.0157  -1.0460   0.0000   0.5075
  -0.500   0.8686   0.00832   0.00218  -0.2094  0.0878  0.0159  -1.0981   0.0000   0.4900
   0.000   0.9260   0.00843   0.00228  -0.2097  0.0842  0.0162  -1.1504   0.0000   0.4746
   0.500   0.9831   0.00855   0.00240  -0.2100  0.0834  0.0165  -1.2032   0.0000   0.4610
   1.500   1.0967   0.00881   0.00265  -0.2104  0.0834  0.0201  -1.3396   0.0000   0.4378
   2.000   1.1531   0.00895   0.00281  -0.2105  0.0827  0.0350  -1.4152   0.0000   0.4279
   2.500   1.2040   0.00955   0.00324  -0.2096  0.0395  0.0384  -1.4983   0.0000   0.4187
   4.000   1.3649   0.01049   0.00410  -0.2086  0.0208  0.0701  -1.8419   0.0000   0.3953
   4.500   1.4152   0.01103   0.00460  -0.2077  0.0053  0.0840  -2.0181   0.0000   0.3884
   5.000   1.4675   0.01137   0.00495  -0.2071  0.0036  0.1124  -2.1943   0.0000   0.3820
   5.500   1.5195   0.01173   0.00534  -0.2066  0.0027  0.1583  -2.3761   0.0000   0.3761
   6.000   1.5743   0.01200   0.00580  -0.2068  0.0015  0.3076  -2.5660   0.0000   0.3707
   6.500   1.6255   0.01238   0.00625  -0.2063  0.0013  0.3673  -2.7557   0.0000   0.3654
   7.000   1.6748   0.01283   0.00673  -0.2053  0.0013  0.3994  -2.9463   0.0000   0.3602
   7.500   1.7244   0.01327   0.00727  -0.2045  0.0013  0.4834  -3.1419   0.0000   0.3554
   8.000   1.7692   0.01383   0.00780  -0.2026  0.0013  0.4660  -3.3327   0.0000   0.3504
   8.500   1.8136   0.01440   0.00841  -0.2008  0.0012  0.5012  -3.5265   0.0000   0.3457
   9.000   1.8492   0.01503   0.00907  -0.1972  0.0012  0.5207  -3.7246   0.0000   0.3407
   9.500   1.8825   0.01575   0.00983  -0.1933  0.0012  0.5445  -3.9632   0.0000   0.3358
  10.000   1.9149   0.01659   0.01072  -0.1894  0.0012  0.5744  -4.2902   0.0000   0.3311
  10.500   1.9475   0.01754   0.01176  -0.1858  0.0011  0.6257  -4.7863   0.0000   0.3267
  11.000   1.9764   0.01867   0.01296  -0.1817  0.0011  0.6566  -5.2828   0.0000   0.3222
  11.500   2.0044   0.01998   0.01434  -0.1778  0.0011  0.6905  -5.7937   0.0000   0.3180
  12.000   2.0306   0.02150   0.01592  -0.1739  0.0011  0.7163  -6.3106   0.0000   0.3139
  12.500   2.0547   0.02326   0.01777  -0.1701  0.0011  0.7551  -6.8297   0.0000   0.3099
  13.000   2.0782   0.02524   0.01988  -0.1667  0.0010  0.8194  -7.4122   0.0000   0.3062
  13.500   2.1019   0.02747   0.02236  -0.1638  0.0009  1.0000  -7.9775   0.0000   0.3028
  14.000   2.1187   0.03021   0.02516  -0.1601  0.0009  1.0000  -8.5108   0.0000   0.2993
  14.500   2.1343   0.03324   0.02824  -0.1568  0.0009  1.0000  -9.0496   0.0000   0.2960
  15.000   2.1471   0.03668   0.03174  -0.1537  0.0009  1.0000  -9.5818   0.0000   0.2929
  15.500   2.1584   0.04037   0.03550  -0.1507  0.0008  1.0000  -10.1123   0.0000   0.2900
  16.000   2.1672   0.04447   0.03967  -0.1480  0.0008  1.0000  -10.6378   0.0000   0.2871
  16.500   2.1747   0.04902   0.04429  -0.1457  0.0008  1.0000  -11.1640   0.0000   0.2845
  17.000   2.1779   0.05430   0.04967  -0.1437  0.0008  1.0000  -11.6632   0.0000   0.2822
  17.500   2.1784   0.06013   0.05559  -0.1420  0.0008  1.0000  -12.1472   0.0000   0.2800
  18.000   2.1776   0.06628   0.06183  -0.1408  0.0007  1.0000  -12.6257   0.0000   0.2781
  18.500   2.1801   0.07202   0.06766  -0.1398  0.0007  1.0000  -13.1452   0.0000   0.2761
  19.000   2.1743   0.07897   0.07471  -0.1393  0.0007  1.0000  -13.5903   0.0000   0.2746
  19.500   2.1620   0.08674   0.08260  -0.1393  0.0007  1.0000  -13.9745   0.0000   0.2734
  20.000   2.1487   0.09511   0.09109  -0.1399  0.0007  1.0000  -14.3454   0.0000   0.2726


