xflr5 v6.59

 Calculated polar for: WORTMANN FX 63-137 AIRFOIL

 1 1 Reynolds number fixed          Mach number fixed         

 xtrf =   1.000 (top)        1.000 (bottom)
 Mach =   0.000     Re =     4.700 e 6     Ncrit =   9.000

  alpha     CL        CD       CDp       Cm    Top Xtr Bot Xtr   Cpmin    Chinge    XCp    
 ------- -------- --------- --------- -------- ------- ------- -------- --------- ---------
 -15.800  -0.6559   0.05308   0.05089  -0.1410  0.8874  0.0043  -13.2326   0.0000   0.0000   0.0000   0.0043
 -15.700  -0.6854   0.04673   0.04447  -0.1464  0.8974  0.0043  -13.7020   0.0000   0.0000   0.0000   0.0070
 -15.600  -0.6973   0.04324   0.04087  -0.1498  0.8843  0.0043  -13.8727   0.0000   0.0000   0.0000   0.0064
 -15.500  -0.7059   0.04040   0.03792  -0.1526  0.8714  0.0043  -13.9800   0.0000   0.0000   0.0000   0.0057
 -15.300  -0.7140   0.03649   0.03382  -0.1563  0.8411  0.0043  -14.0293   0.0000   0.0000   0.0000   0.0039
 -15.200  -0.7170   0.03475   0.03201  -0.1579  0.8289  0.0043  -14.0327   0.0000   0.0000   0.0000   0.0030
 -15.100  -0.7180   0.03328   0.03049  -0.1592  0.8201  0.0043  -14.0049   0.0000   0.0000   0.0000   0.0018
 -14.900  -0.4622   0.07147   0.06917  -0.1280  0.7357  0.0045  -9.6837   0.0000   0.0000   0.0000  -0.0628
 -14.800  -0.4609   0.07017   0.06786  -0.1288  0.7304  0.0045  -9.6448   0.0000   0.0000   0.0000  -0.0652
 -14.700  -0.4605   0.06865   0.06634  -0.1297  0.7253  0.0045  -9.6236   0.0000   0.0000   0.0000  -0.0672
 -14.600  -0.4630   0.06667   0.06435  -0.1310  0.7222  0.0045  -9.6506   0.0000   0.0000   0.0000  -0.0680
 -14.500  -0.4672   0.06441   0.06208  -0.1324  0.7209  0.0045  -9.7047   0.0000   0.0000   0.0000  -0.0681
 -14.400  -0.4728   0.06195   0.05962  -0.1341  0.7206  0.0045  -9.7802   0.0000   0.0000   0.0000  -0.0677
 -14.300  -0.4786   0.05932   0.05698  -0.1358  0.7203  0.0045  -9.8601   0.0000   0.0000   0.0000  -0.0673
 -14.200  -0.4853   0.05651   0.05415  -0.1378  0.7201  0.0045  -9.9554   0.0000   0.0000   0.0000  -0.0668
 -14.100  -0.4922   0.05360   0.05122  -0.1399  0.7199  0.0045  -10.0510   0.0000   0.0000   0.0000  -0.0665
 -14.000  -0.4995   0.05069   0.04829  -0.1421  0.7198  0.0045  -10.1485   0.0000   0.0000   0.0000  -0.0661
 -13.900  -0.5068   0.04780   0.04537  -0.1444  0.7195  0.0045  -10.2426   0.0000   0.0000   0.0000  -0.0658
 -13.800  -0.5144   0.04492   0.04246  -0.1469  0.7193  0.0045  -10.3366   0.0000   0.0000   0.0000  -0.0657
 -13.700  -0.5220   0.04206   0.03957  -0.1494  0.7190  0.0046  -10.4282   0.0000   0.0000   0.0000  -0.0656
 -13.600  -0.5299   0.03930   0.03676  -0.1519  0.7187  0.0046  -10.5191   0.0000   0.0000   0.0000  -0.0653
 -13.500  -0.5381   0.03656   0.03398  -0.1545  0.7184  0.0046  -10.6099   0.0000   0.0000   0.0000  -0.0650
 -13.400  -0.5465   0.03389   0.03125  -0.1571  0.7180  0.0046  -10.7016   0.0000   0.0000   0.0000  -0.0645
 -13.300  -0.5553   0.03128   0.02858  -0.1596  0.7175  0.0045  -10.7942   0.0000   0.0000   0.0000  -0.0637
 -13.200  -0.5645   0.02877   0.02601  -0.1620  0.7169  0.0045  -10.8866   0.0000   0.0000   0.0000  -0.0624
 -13.100  -0.5742   0.02660   0.02376  -0.1636  0.7161  0.0045  -10.9711   0.0000   0.0000   0.0000  -0.0596
 -13.000  -0.5831   0.02351   0.02054  -0.1679  0.7153  0.0045  -11.0978   0.0000   0.0000   0.0000  -0.0618
  -7.400   0.0488   0.00874   0.00268  -0.1995  0.3391  0.0063  -4.0816   0.0000   0.0000   0.0000   4.4656
  -7.300   0.0608   0.00870   0.00263  -0.1997  0.3384  0.0063  -4.0057   0.0000   0.0000   0.0000   3.6307
  -7.200   0.0729   0.00866   0.00259  -0.1999  0.3376  0.0062  -3.9301   0.0000   0.0000   0.0000   3.0727
  -7.100   0.0849   0.00862   0.00255  -0.2001  0.3367  0.0062  -3.8550   0.0000   0.0000   0.0000   2.6735
  -7.000   0.0969   0.00859   0.00251  -0.2002  0.3353  0.0062  -3.7804   0.0000   0.0000   0.0000   2.3742
  -6.900   0.1090   0.00856   0.00246  -0.2004  0.3352  0.0061  -3.7057   0.0000   0.0000   0.0000   2.1399
  -6.800   0.1210   0.00853   0.00242  -0.2006  0.3349  0.0061  -3.6317   0.0000   0.0000   0.0000   1.9524
  -6.600   0.1435   0.00859   0.00241  -0.2006  0.3096  0.0060  -3.4903   0.0000   0.0000   0.0000   1.6847
  -6.500   0.1553   0.00858   0.00238  -0.2007  0.3051  0.0059  -3.4184   0.0000   0.0000   0.0000   1.5762
  -6.400   0.1670   0.00858   0.00236  -0.2009  0.3013  0.0059  -3.3470   0.0000   0.0000   0.0000   1.4832
  -6.300   0.1787   0.00858   0.00234  -0.2009  0.2975  0.0059  -3.2757   0.0000   0.0000   0.0000   1.4027
  -6.200   0.1903   0.00858   0.00232  -0.2010  0.2937  0.0058  -3.2043   0.0000   0.0000   0.0000   1.3321
  -6.100   0.2020   0.00858   0.00231  -0.2011  0.2896  0.0058  -3.1324   0.0000   0.0000   0.0000   1.2695
  -6.000   0.2138   0.00858   0.00229  -0.2013  0.2855  0.0058  -3.0595   0.0000   0.0000   0.0000   1.2135
  -5.900   0.2256   0.00857   0.00228  -0.2014  0.2811  0.0058  -2.9851   0.0000   0.0000   0.0000   1.1632
  -5.800   0.2374   0.00856   0.00227  -0.2015  0.2787  0.0058  -2.9085   0.0000   0.0000   0.0000   1.1179
  -5.700   0.2492   0.00856   0.00227  -0.2016  0.2780  0.0057  -2.8257   0.0000   0.0000   0.0000   1.0770
  -5.600   0.2593   0.00869   0.00249  -0.2014  0.2774  0.0057  -2.6472   0.0000   0.0000   0.0000   1.0434
  -5.500   0.2712   0.00867   0.00247  -0.2015  0.2766  0.0057  -2.5792   0.0000   0.0000   0.0000   1.0088
  -5.400   0.2831   0.00866   0.00246  -0.2016  0.2755  0.0056  -2.5141   0.0000   0.0000   0.0000   0.9771
  -5.300   0.2951   0.00864   0.00244  -0.2018  0.2750  0.0056  -2.4510   0.0000   0.0000   0.0000   0.9479
  -5.200   0.3070   0.00861   0.00241  -0.2019  0.2747  0.0055  -2.3896   0.0000   0.0000   0.0000   0.9209
  -5.100   0.3175   0.00872   0.00244  -0.2018  0.2521  0.0055  -2.3341   0.0000   0.0000   0.0000   0.8981
  -5.000   0.3293   0.00871   0.00241  -0.2020  0.2475  0.0054  -2.2765   0.0000   0.0000   0.0000   0.8751
  -4.900   0.3411   0.00871   0.00239  -0.2021  0.2445  0.0054  -2.2201   0.0000   0.0000   0.0000   0.8535
  -4.800   0.3529   0.00870   0.00237  -0.2022  0.2416  0.0053  -2.1653   0.0000   0.0000   0.0000   0.8335
  -4.700   0.3647   0.00870   0.00234  -0.2023  0.2387  0.0053  -2.1117   0.0000   0.0000   0.0000   0.8147
  -4.600   0.3765   0.00870   0.00232  -0.2024  0.2357  0.0053  -2.0594   0.0000   0.0000   0.0000   0.7971
  -4.500   0.3884   0.00869   0.00229  -0.2026  0.2327  0.0052  -2.0084   0.0000   0.0000   0.0000   0.7805
  -4.400   0.4003   0.00867   0.00225  -0.2027  0.2291  0.0052  -1.9595   0.0000   0.0000   0.0000   0.7648
  -4.300   0.4123   0.00866   0.00222  -0.2029  0.2256  0.0051  -1.9111   0.0000   0.0000   0.0000   0.7500
  -4.200   0.4243   0.00864   0.00219  -0.2030  0.2229  0.0051  -1.8645   0.0000   0.0000   0.0000   0.7361
  -4.100   0.4363   0.00862   0.00216  -0.2032  0.2219  0.0051  -1.8201   0.0000   0.0000   0.0000   0.7228
  -4.000   0.4490   0.00856   0.00207  -0.2035  0.2215  0.0050  -1.8221   0.0000   0.0000   0.0000   0.7099
  -3.900   0.4610   0.00854   0.00205  -0.2036  0.2210  0.0050  -1.7858   0.0000   0.0000   0.0000   0.6981
  -3.800   0.4730   0.00853   0.00203  -0.2038  0.2205  0.0050  -1.7435   0.0000   0.0000   0.0000   0.6868
  -3.700   0.4849   0.00852   0.00202  -0.2039  0.2200  0.0050  -1.7003   0.0000   0.0000   0.0000   0.6762
  -3.600   0.4968   0.00851   0.00201  -0.2041  0.2193  0.0050  -1.6581   0.0000   0.0000   0.0000   0.6661
  -3.500   0.5096   0.00844   0.00198  -0.2044  0.2183  0.0134  -1.6828   0.0000   0.0000   0.0000   0.6561
  -3.400   0.5214   0.00844   0.00198  -0.2045  0.2181  0.0140  -1.6206   0.0000   0.0000   0.0000   0.6470
  -3.200   0.5434   0.00857   0.00204  -0.2045  0.1951  0.0147  -1.5022   0.0000   0.0000   0.0000   0.6305
  -3.100   0.5549   0.00859   0.00205  -0.2046  0.1931  0.0149  -1.4413   0.0000   0.0000   0.0000   0.6225
  -3.000   0.5665   0.00861   0.00205  -0.2046  0.1912  0.0152  -1.3803   0.0000   0.0000   0.0000   0.6149
  -2.900   0.5780   0.00863   0.00206  -0.2047  0.1892  0.0154  -1.3193   0.0000   0.0000   0.0000   0.6075
  -2.800   0.5895   0.00865   0.00207  -0.2048  0.1873  0.0155  -1.2588   0.0000   0.0000   0.0000   0.6005
  -2.700   0.6010   0.00867   0.00208  -0.2048  0.1853  0.0157  -1.1996   0.0000   0.0000   0.0000   0.5937
  -2.600   0.6125   0.00869   0.00209  -0.2049  0.1834  0.0158  -1.1434   0.0000   0.0000   0.0000   0.5872
  -2.500   0.6242   0.00870   0.00209  -0.2050  0.1813  0.0158  -1.0929   0.0000   0.0000   0.0000   0.5809
  -2.400   0.6359   0.00872   0.00208  -0.2051  0.1768  0.0157  -1.0550   0.0000   0.0000   0.0000   0.5748
  -2.300   0.6473   0.00875   0.00209  -0.2051  0.1674  0.0153  -1.0218   0.0000   0.0000   0.0000   0.5689
  -2.200   0.6589   0.00876   0.00209  -0.2052  0.1664  0.0155  -0.9688   0.0000   0.0000   0.0000   0.5633
  -2.100   0.6706   0.00877   0.00210  -0.2053  0.1662  0.0156  -0.9282   0.0000   0.0000   0.0000   0.5578
  -2.000   0.6809   0.00889   0.00217  -0.2052  0.1491  0.0157  -0.9362   0.0000   0.0000   0.0000   0.5528
  -1.900   0.6923   0.00893   0.00218  -0.2052  0.1453  0.0158  -0.9448   0.0000   0.0000   0.0000   0.5477
  -1.800   0.7038   0.00895   0.00220  -0.2053  0.1437  0.0160  -0.9535   0.0000   0.0000   0.0000   0.5427
  -1.700   0.7153   0.00897   0.00221  -0.2053  0.1422  0.0161  -0.9632   0.0000   0.0000   0.0000   0.5380
  -1.600   0.7267   0.00900   0.00222  -0.2054  0.1407  0.0162  -0.9734   0.0000   0.0000   0.0000   0.5333
  -1.500   0.7381   0.00903   0.00224  -0.2054  0.1392  0.0162  -0.9837   0.0000   0.0000   0.0000   0.5289
  -1.400   0.7496   0.00906   0.00225  -0.2055  0.1377  0.0163  -0.9939   0.0000   0.0000   0.0000   0.5245
  -1.300   0.7610   0.00908   0.00227  -0.2056  0.1362  0.0164  -1.0042   0.0000   0.0000   0.0000   0.5203
  -1.200   0.7725   0.00910   0.00228  -0.2056  0.1347  0.0165  -1.0145   0.0000   0.0000   0.0000   0.5162
  -1.100   0.7840   0.00912   0.00229  -0.2057  0.1332  0.0165  -1.0248   0.0000   0.0000   0.0000   0.5122
  -1.000   0.7955   0.00914   0.00231  -0.2057  0.1316  0.0165  -1.0351   0.0000   0.0000   0.0000   0.5083
  -0.900   0.8070   0.00916   0.00232  -0.2058  0.1300  0.0166  -1.0455   0.0000   0.0000   0.0000   0.5046
  -0.800   0.8185   0.00918   0.00234  -0.2059  0.1280  0.0166  -1.0558   0.0000   0.0000   0.0000   0.5009
  -0.700   0.8300   0.00921   0.00236  -0.2059  0.1250  0.0167  -1.0661   0.0000   0.0000   0.0000   0.4973
  -0.600   0.8414   0.00923   0.00238  -0.2060  0.1238  0.0167  -1.0765   0.0000   0.0000   0.0000   0.4939
  -0.500   0.8529   0.00925   0.00240  -0.2060  0.1234  0.0167  -1.0869   0.0000   0.0000   0.0000   0.4905
  -0.400   0.8644   0.00927   0.00241  -0.2061  0.1231  0.0168  -1.0973   0.0000   0.0000   0.0000   0.4872
  -0.300   0.8758   0.00929   0.00243  -0.2062  0.1228  0.0169  -1.1077   0.0000   0.0000   0.0000   0.4840
  -0.200   0.8873   0.00931   0.00245  -0.2062  0.1225  0.0170  -1.1182   0.0000   0.0000   0.0000   0.4809
   0.000   0.9103   0.00935   0.00247  -0.2064  0.1217  0.0182  -1.1391   0.0000   0.0000   0.0000   0.4749
   0.100   0.9216   0.00938   0.00250  -0.2064  0.1212  0.0183  -1.1495   0.0000   0.0000   0.0000   0.4720
   0.200   0.9330   0.00941   0.00252  -0.2065  0.1203  0.0182  -1.1599   0.0000   0.0000   0.0000   0.4692
   0.300   0.9443   0.00943   0.00255  -0.2065  0.1199  0.0181  -1.1704   0.0000   0.0000   0.0000   0.4664
   0.400   0.9541   0.00960   0.00266  -0.2062  0.1033  0.0180  -1.1796   0.0000   0.0000   0.0000   0.4637
   0.500   0.9653   0.00964   0.00269  -0.2062  0.1023  0.0177  -1.1899   0.0000   0.0000   0.0000   0.4611
   0.600   0.9765   0.00968   0.00273  -0.2062  0.1012  0.0175  -1.2011   0.0000   0.0000   0.0000   0.4585
   0.900   1.0098   0.00981   0.00284  -0.2062  0.0984  0.0174  -1.2379   0.0000   0.0000   0.0000   0.4511
   1.200   1.0432   0.00994   0.00295  -0.2062  0.0954  0.0205  -1.2749   0.0000   0.0000   0.0000   0.4441
   1.300   1.0541   0.00999   0.00298  -0.2062  0.0942  0.0233  -1.2897   0.0000   0.0000   0.0000   0.4419
   1.400   1.0654   0.01002   0.00302  -0.2062  0.0930  0.0251  -1.3047   0.0000   0.0000   0.0000   0.4397
   1.500   1.0765   0.01006   0.00308  -0.2062  0.0917  0.0265  -1.3197   0.0000   0.0000   0.0000   0.4375
   1.600   1.0879   0.01009   0.00311  -0.2063  0.0904  0.0348  -1.3349   0.0000   0.0000   0.0000   0.4355
   1.700   1.0991   0.01012   0.00315  -0.2063  0.0891  0.0359  -1.3500   0.0000   0.0000   0.0000   0.4334
   1.800   1.1102   0.01016   0.00319  -0.2063  0.0878  0.0366  -1.3651   0.0000   0.0000   0.0000   0.4314
   1.900   1.1213   0.01020   0.00323  -0.2063  0.0868  0.0372  -1.3801   0.0000   0.0000   0.0000   0.4294
   2.000   1.1324   0.01024   0.00327  -0.2063  0.0858  0.0376  -1.3952   0.0000   0.0000   0.0000   0.4275
   2.100   1.1435   0.01028   0.00331  -0.2063  0.0849  0.0380  -1.4102   0.0000   0.0000   0.0000   0.4255
   2.200   1.1545   0.01032   0.00335  -0.2063  0.0844  0.0389  -1.4253   0.0000   0.0000   0.0000   0.4237
   2.300   1.1656   0.01035   0.00339  -0.2063  0.0842  0.0441  -1.4403   0.0000   0.0000   0.0000   0.4218
   2.400   1.1764   0.01041   0.00345  -0.2062  0.0825  0.0466  -1.4553   0.0000   0.0000   0.0000   0.4200
   2.500   1.1850   0.01066   0.00363  -0.2057  0.0655  0.0485  -1.4741   0.0000   0.0000   0.0000   0.4182
   2.600   1.1949   0.01079   0.00372  -0.2055  0.0599  0.0505  -1.4933   0.0000   0.0000   0.0000   0.4165
   2.700   1.2060   0.01084   0.00378  -0.2055  0.0564  0.0646  -1.5120   0.0000   0.0000   0.0000   0.4147
   2.800   1.2168   0.01089   0.00384  -0.2055  0.0534  0.0676  -1.5305   0.0000   0.0000   0.0000   0.4131
   2.900   1.2277   0.01095   0.00389  -0.2055  0.0517  0.0756  -1.5490   0.0000   0.0000   0.0000   0.4114
   3.000   1.2385   0.01100   0.00394  -0.2054  0.0513  0.0786  -1.5674   0.0000   0.0000   0.0000   0.4097
   3.100   1.2494   0.01105   0.00400  -0.2054  0.0509  0.0817  -1.5903   0.0000   0.0000   0.0000   0.4081
   3.200   1.2602   0.01110   0.00406  -0.2053  0.0505  0.0856  -1.6136   0.0000   0.0000   0.0000   0.4065
   3.300   1.2713   0.01114   0.00411  -0.2054  0.0499  0.1006  -1.6374   0.0000   0.0000   0.0000   0.4050
   3.400   1.2820   0.01120   0.00418  -0.2053  0.0491  0.1023  -1.6611   0.0000   0.0000   0.0000   0.4034
   3.500   1.2926   0.01127   0.00424  -0.2052  0.0481  0.1035  -1.6850   0.0000   0.0000   0.0000   0.4019
   3.600   1.3031   0.01134   0.00431  -0.2051  0.0470  0.1085  -1.7090   0.0000   0.0000   0.0000   0.4004
   3.700   1.3136   0.01142   0.00438  -0.2050  0.0458  0.1138  -1.7330   0.0000   0.0000   0.0000   0.3989
   3.800   1.3240   0.01149   0.00445  -0.2049  0.0446  0.1170  -1.7570   0.0000   0.0000   0.0000   0.3975
   3.900   1.3357   0.01147   0.00446  -0.2050  0.0489  0.1178  -1.7790   0.0000   0.0000   0.0000   0.3961
   4.000   1.3464   0.01152   0.00453  -0.2050  0.0484  0.1240  -1.8131   0.0000   0.0000   0.0000   0.3947
   4.100   1.3573   0.01158   0.00461  -0.2050  0.0472  0.1441  -1.8478   0.0000   0.0000   0.0000   0.3933
   4.200   1.3674   0.01168   0.00470  -0.2048  0.0452  0.1465  -1.8815   0.0000   0.0000   0.0000   0.3919
   4.300   1.3775   0.01178   0.00479  -0.2046  0.0426  0.1563  -1.9152   0.0000   0.0000   0.0000   0.3905
   4.400   1.3880   0.01186   0.00487  -0.2045  0.0398  0.1674  -1.9497   0.0000   0.0000   0.0000   0.3892
   4.500   1.3991   0.01190   0.00495  -0.2046  0.0382  0.1933  -1.9853   0.0000   0.0000   0.0000   0.3879
   4.600   1.4095   0.01197   0.00502  -0.2045  0.0380  0.1972  -2.0205   0.0000   0.0000   0.0000   0.3866
   4.700   1.4203   0.01202   0.00509  -0.2045  0.0378  0.2134  -2.0563   0.0000   0.0000   0.0000   0.3853
   4.800   1.4318   0.01205   0.00517  -0.2047  0.0375  0.2476  -2.0934   0.0000   0.0000   0.0000   0.3842
   4.900   1.4422   0.01212   0.00524  -0.2045  0.0373  0.2531  -2.1291   0.0000   0.0000   0.0000   0.3829
   5.000   1.4532   0.01216   0.00532  -0.2046  0.0370  0.2751  -2.1659   0.0000   0.0000   0.0000   0.3817
   5.100   1.4645   0.01220   0.00541  -0.2047  0.0366  0.3064  -2.2035   0.0000   0.0000   0.0000   0.3805
   5.200   1.4750   0.01227   0.00549  -0.2047  0.0361  0.3231  -2.2403   0.0000   0.0000   0.0000   0.3794
   5.300   1.4866   0.01230   0.00559  -0.2049  0.0355  0.3660  -2.2792   0.0000   0.0000   0.0000   0.3783
   5.500   1.5055   0.01267   0.00600  -0.2045  0.0222  0.4461  -2.3444   0.0000   0.0000   0.0000   0.3760
   5.600   1.5154   0.01279   0.00614  -0.2044  0.0189  0.4651  -2.3734   0.0000   0.0000   0.0000   0.3748
   5.700   1.5252   0.01289   0.00624  -0.2041  0.0170  0.4695  -2.4075   0.0000   0.0000   0.0000   0.3737
   5.800   1.5352   0.01298   0.00634  -0.2040  0.0165  0.4808  -2.4437   0.0000   0.0000   0.0000   0.3725
   5.900   1.5406   0.01342   0.00677  -0.2029  0.0042  0.4934  -2.4821   0.0000   0.0000   0.0000   0.3712
   6.000   1.5499   0.01354   0.00689  -0.2026  0.0036  0.4962  -2.5184   0.0000   0.0000   0.0000   0.3701
   6.100   1.5593   0.01366   0.00701  -0.2023  0.0034  0.4979  -2.5545   0.0000   0.0000   0.0000   0.3689
   6.200   1.5687   0.01377   0.00711  -0.2020  0.0032  0.4993  -2.5907   0.0000   0.0000   0.0000   0.3678
   6.300   1.5781   0.01387   0.00722  -0.2017  0.0030  0.5008  -2.6269   0.0000   0.0000   0.0000   0.3667
   6.400   1.5875   0.01398   0.00733  -0.2014  0.0029  0.5059  -2.6631   0.0000   0.0000   0.0000   0.3656
   6.500   1.5969   0.01409   0.00744  -0.2012  0.0027  0.5114  -2.6995   0.0000   0.0000   0.0000   0.3645
   6.600   1.6063   0.01419   0.00755  -0.2009  0.0025  0.5165  -2.7359   0.0000   0.0000   0.0000   0.3634
   6.700   1.6157   0.01430   0.00767  -0.2006  0.0024  0.5242  -2.7724   0.0000   0.0000   0.0000   0.3623
   6.800   1.6249   0.01440   0.00778  -0.2003  0.0022  0.5304  -2.8088   0.0000   0.0000   0.0000   0.3613
   6.900   1.6340   0.01452   0.00790  -0.2000  0.0021  0.5361  -2.8452   0.0000   0.0000   0.0000   0.3602
   7.000   1.6433   0.01462   0.00802  -0.1997  0.0019  0.5471  -2.8821   0.0000   0.0000   0.0000   0.3592
   7.100   1.6523   0.01474   0.00814  -0.1993  0.0018  0.5518  -2.9187   0.0000   0.0000   0.0000   0.3581
   7.200   1.6612   0.01486   0.00826  -0.1990  0.0017  0.5545  -2.9552   0.0000   0.0000   0.0000   0.3571
   7.300   1.6699   0.01498   0.00838  -0.1985  0.0016  0.5570  -2.9916   0.0000   0.0000   0.0000   0.3561
   7.400   1.6785   0.01510   0.00851  -0.1981  0.0015  0.5594  -3.0280   0.0000   0.0000   0.0000   0.3550
   7.500   1.6868   0.01523   0.00863  -0.1976  0.0014  0.5615  -3.0640   0.0000   0.0000   0.0000   0.3540
   7.600   1.6943   0.01535   0.00876  -0.1970  0.0014  0.5632  -3.0987   0.0000   0.0000   0.0000   0.3529
   7.700   1.7010   0.01548   0.00889  -0.1962  0.0013  0.5645  -3.1318   0.0000   0.0000   0.0000   0.3518
   7.800   1.7078   0.01561   0.00903  -0.1954  0.0013  0.5663  -3.1655   0.0000   0.0000   0.0000   0.3507
   7.900   1.7150   0.01575   0.00917  -0.1947  0.0013  0.5731  -3.1997   0.0000   0.0000   0.0000   0.3496
   8.000   1.7222   0.01588   0.00932  -0.1940  0.0013  0.5805  -3.2342   0.0000   0.0000   0.0000   0.3486
   8.100   1.7293   0.01602   0.00947  -0.1933  0.0013  0.5864  -3.2688   0.0000   0.0000   0.0000   0.3476
   8.200   1.7364   0.01617   0.00964  -0.1926  0.0013  0.5895  -3.3034   0.0000   0.0000   0.0000   0.3465
   8.300   1.7435   0.01632   0.00980  -0.1919  0.0013  0.5955  -3.3382   0.0000   0.0000   0.0000   0.3455
   8.400   1.7507   0.01647   0.00997  -0.1912  0.0013  0.6057  -3.3731   0.0000   0.0000   0.0000   0.3445
   8.500   1.7580   0.01662   0.01014  -0.1906  0.0013  0.6188  -3.4084   0.0000   0.0000   0.0000   0.3435
   8.600   1.7648   0.01678   0.01032  -0.1899  0.0013  0.6263  -3.4429   0.0000   0.0000   0.0000   0.3425
   8.700   1.7715   0.01695   0.01050  -0.1891  0.0013  0.6302  -3.4773   0.0000   0.0000   0.0000   0.3415
   8.800   1.7785   0.01712   0.01069  -0.1884  0.0013  0.6422  -3.5123   0.0000   0.0000   0.0000   0.3405
   8.900   1.7853   0.01730   0.01089  -0.1878  0.0013  0.6510  -3.5471   0.0000   0.0000   0.0000   0.3395
   9.000   1.7918   0.01749   0.01109  -0.1870  0.0013  0.6575  -3.5816   0.0000   0.0000   0.0000   0.3386
   9.100   1.7984   0.01768   0.01129  -0.1863  0.0013  0.6638  -3.6162   0.0000   0.0000   0.0000   0.3376
   9.200   1.8053   0.01787   0.01150  -0.1856  0.0013  0.6742  -3.6566   0.0000   0.0000   0.0000   0.3366
   9.300   1.8119   0.01807   0.01172  -0.1849  0.0013  0.6815  -3.7027   0.0000   0.0000   0.0000   0.3357
   9.400   1.8181   0.01828   0.01194  -0.1841  0.0012  0.6863  -3.7481   0.0000   0.0000   0.0000   0.3347
   9.500   1.8241   0.01850   0.01217  -0.1833  0.0012  0.6893  -3.7933   0.0000   0.0000   0.0000   0.3338
   9.600   1.8301   0.01873   0.01241  -0.1825  0.0012  0.6913  -3.8383   0.0000   0.0000   0.0000   0.3328
   9.700   1.8361   0.01896   0.01265  -0.1818  0.0012  0.6971  -3.8837   0.0000   0.0000   0.0000   0.3319
   9.800   1.8418   0.01920   0.01291  -0.1810  0.0012  0.7033  -3.9284   0.0000   0.0000   0.0000   0.3309
   9.900   1.8475   0.01945   0.01318  -0.1801  0.0012  0.7086  -3.9732   0.0000   0.0000   0.0000   0.3300
  10.000   1.8533   0.01971   0.01345  -0.1794  0.0012  0.7135  -4.0183   0.0000   0.0000   0.0000   0.3291
  10.100   1.8592   0.01997   0.01372  -0.1786  0.0012  0.7179  -4.0636   0.0000   0.0000   0.0000   0.3282
  10.300   1.8703   0.02053   0.01433  -0.1770  0.0012  0.7329  -4.1528   0.0000   0.0000   0.0000   0.3264
  10.400   1.8758   0.02083   0.01466  -0.1763  0.0012  0.7415  -4.2304   0.0000   0.0000   0.0000   0.3255
  10.500   1.8814   0.02112   0.01497  -0.1755  0.0012  0.7479  -4.3113   0.0000   0.0000   0.0000   0.3246
  10.600   1.8865   0.02145   0.01532  -0.1747  0.0012  0.7558  -4.3900   0.0000   0.0000   0.0000   0.3237
  10.700   1.8917   0.02178   0.01568  -0.1739  0.0012  0.7661  -4.4679   0.0000   0.0000   0.0000   0.3229
  10.800   1.8969   0.02212   0.01605  -0.1732  0.0012  0.7747  -4.5440   0.0000   0.0000   0.0000   0.3220
  10.900   1.9023   0.02246   0.01642  -0.1724  0.0012  0.7861  -4.6191   0.0000   0.0000   0.0000   0.3212
  11.000   1.9070   0.02284   0.01684  -0.1717  0.0012  0.7986  -4.6892   0.0000   0.0000   0.0000   0.3203
  11.100   1.9116   0.02323   0.01727  -0.1708  0.0012  0.8096  -4.7559   0.0000   0.0000   0.0000   0.3195
  11.200   1.9164   0.02363   0.01772  -0.1701  0.0012  0.8236  -4.8211   0.0000   0.0000   0.0000   0.3187
  11.300   1.9211   0.02405   0.01820  -0.1693  0.0012  0.8389  -4.8817   0.0000   0.0000   0.0000   0.3179
  11.400   1.9246   0.02454   0.01876  -0.1685  0.0012  0.8596  -4.9325   0.0000   0.0000   0.0000   0.3170
  11.500   1.9286   0.02507   0.01943  -0.1677  0.0012  0.9254  -4.9705   0.0000   0.0000   0.0000   0.3163
  15.400   1.9997   0.05600   0.05130  -0.1420  0.0011  1.0000  -8.0861   0.0000   0.0000   0.0000   0.2913
  15.500   1.9950   0.05781   0.05316  -0.1416  0.0011  1.0000  -8.1126   0.0000   0.0000   0.0000   0.2910
  15.600   1.9922   0.05939   0.05478  -0.1412  0.0011  1.0000  -8.1508   0.0000   0.0000   0.0000   0.2906
  15.700   1.9904   0.06084   0.05627  -0.1408  0.0011  1.0000  -8.1934   0.0000   0.0000   0.0000   0.2902
  15.800   1.9883   0.06232   0.05780  -0.1404  0.0011  1.0000  -8.2326   0.0000   0.0000   0.0000   0.2899
  15.900   1.9855   0.06391   0.05943  -0.1401  0.0011  1.0000  -8.2639   0.0000   0.0000   0.0000   0.2895
  16.000   1.9771   0.06633   0.06191  -0.1398  0.0011  1.0000  -8.2510   0.0000   0.0000   0.0000   0.2894
  16.100   1.9698   0.06858   0.06422  -0.1395  0.0011  1.0000  -8.2275   0.0000   0.0000   0.0000   0.2892
