xflr5 v6.59

 Calculated polar for: WORTMANN FX 63-137 AIRFOIL

 1 1 Reynolds number fixed          Mach number fixed         

 xtrf =   1.000 (top)        1.000 (bottom)
 Mach =   0.000     Re =     4.100 e 6     Ncrit =   9.000

  alpha     CL        CD       CDp       Cm    Top Xtr Bot Xtr   Cpmin    Chinge    XCp    
 ------- -------- --------- --------- -------- ------- ------- -------- --------- ---------
 -15.700  -0.1825   0.14355   0.14125  -0.0929  0.7188  0.0032  -3.3484   0.0000   0.0000   0.0000  -0.3256
 -15.600  -0.1790   0.14246   0.14017  -0.0935  0.7178  0.0033  -3.3159   0.0000   0.0000   0.0000  -0.3396
 -15.500  -0.1755   0.14138   0.13908  -0.0940  0.7166  0.0034  -3.2835   0.0000   0.0000   0.0000  -0.3542
 -15.400  -0.1720   0.14029   0.13798  -0.0946  0.7149  0.0035  -3.2516   0.0000   0.0000   0.0000  -0.3692
 -15.300  -0.1685   0.13920   0.13689  -0.0952  0.7123  0.0036  -3.2202   0.0000   0.0000   0.0000  -0.3847
 -15.200  -0.1651   0.13811   0.13579  -0.0957  0.7089  0.0036  -3.1893   0.0000   0.0000   0.0000  -0.4007
 -14.600  -0.6295   0.03906   0.03645  -0.1529  0.7990  0.0044  -12.3797   0.0000   0.0000   0.0000  -0.0207
 -14.500  -0.6354   0.03677   0.03410  -0.1550  0.7948  0.0044  -12.4342   0.0000   0.0000   0.0000  -0.0212
 -14.400  -0.6348   0.03550   0.03280  -0.1561  0.7892  0.0044  -12.3852   0.0000   0.0000   0.0000  -0.0229
 -14.300  -0.6359   0.03398   0.03123  -0.1575  0.7835  0.0044  -12.3616   0.0000   0.0000   0.0000  -0.0243
 -14.200  -0.6318   0.03322   0.03045  -0.1582  0.7776  0.0044  -12.2584   0.0000   0.0000   0.0000  -0.0267
 -14.100  -0.6260   0.03262   0.02986  -0.1587  0.7758  0.0045  -12.1323   0.0000   0.0000   0.0000  -0.0298
 -14.000  -0.6147   0.03277   0.03004  -0.1585  0.7730  0.0045  -11.9237   0.0000   0.0000   0.0000  -0.0342
  -8.300  -0.0568   0.00881   0.00314  -0.1984  0.4250  0.0100  -4.9186   0.0000   0.0000   0.0000  -3.3624
  -8.200  -0.0451   0.00879   0.00307  -0.1986  0.4196  0.0100  -4.8133   0.0000   0.0000   0.0000  -4.3057
  -7.800   0.0009   0.00887   0.00293  -0.1986  0.4016  0.0063  -4.3986   0.0000   0.0000   0.0000  225.0128
  -7.700   0.0130   0.00882   0.00287  -0.1988  0.4004  0.0062  -4.3049   0.0000   0.0000   0.0000  16.0218
  -7.600   0.0251   0.00877   0.00281  -0.1990  0.3989  0.0062  -4.2278   0.0000   0.0000   0.0000   8.4356
  -7.500   0.0372   0.00873   0.00275  -0.1992  0.3977  0.0062  -4.1512   0.0000   0.0000   0.0000   5.7761
  -7.400   0.0493   0.00868   0.00270  -0.1994  0.3972  0.0061  -4.0749   0.0000   0.0000   0.0000   4.4196
  -7.300   0.0597   0.00877   0.00270  -0.1993  0.3717  0.0061  -4.0048   0.0000   0.0000   0.0000   3.6870
  -7.200   0.0715   0.00875   0.00265  -0.1994  0.3664  0.0061  -3.9304   0.0000   0.0000   0.0000   3.1204
  -7.100   0.0833   0.00873   0.00261  -0.1996  0.3620  0.0060  -3.8564   0.0000   0.0000   0.0000   2.7151
  -7.000   0.0950   0.00872   0.00258  -0.1997  0.3577  0.0060  -3.7830   0.0000   0.0000   0.0000   2.4114
  -6.900   0.1070   0.00869   0.00253  -0.1998  0.3566  0.0060  -3.7088   0.0000   0.0000   0.0000   2.1698
  -6.800   0.1187   0.00868   0.00249  -0.2000  0.3527  0.0059  -3.6361   0.0000   0.0000   0.0000   1.9799
  -6.700   0.1306   0.00867   0.00246  -0.2001  0.3485  0.0059  -3.5636   0.0000   0.0000   0.0000   1.8236
  -6.600   0.1424   0.00865   0.00243  -0.2002  0.3436  0.0059  -3.4913   0.0000   0.0000   0.0000   1.6928
  -6.500   0.1544   0.00862   0.00240  -0.2004  0.3398  0.0058  -3.4189   0.0000   0.0000   0.0000   1.5816
  -6.400   0.1664   0.00860   0.00237  -0.2005  0.3387  0.0058  -3.3464   0.0000   0.0000   0.0000   1.4861
  -6.300   0.1783   0.00858   0.00234  -0.2007  0.3379  0.0058  -3.2741   0.0000   0.0000   0.0000   1.4035
  -6.200   0.1903   0.00855   0.00232  -0.2008  0.3370  0.0058  -3.2019   0.0000   0.0000   0.0000   1.3314
  -6.100   0.2022   0.00853   0.00229  -0.2010  0.3358  0.0058  -3.1298   0.0000   0.0000   0.0000   1.2679
  -6.000   0.2141   0.00852   0.00227  -0.2011  0.3347  0.0058  -3.0577   0.0000   0.0000   0.0000   1.2115
  -5.900   0.2260   0.00850   0.00225  -0.2013  0.3343  0.0058  -2.9850   0.0000   0.0000   0.0000   1.1610
  -5.800   0.2365   0.00860   0.00228  -0.2011  0.3132  0.0057  -2.9170   0.0000   0.0000   0.0000   1.1198
  -5.700   0.2480   0.00861   0.00227  -0.2012  0.3058  0.0057  -2.8452   0.0000   0.0000   0.0000   1.0793
  -5.600   0.2596   0.00862   0.00227  -0.2013  0.3018  0.0057  -2.7709   0.0000   0.0000   0.0000   1.0423
  -5.500   0.2710   0.00865   0.00228  -0.2013  0.2979  0.0056  -2.6845   0.0000   0.0000   0.0000   1.0089
  -5.400   0.2813   0.00876   0.00245  -0.2011  0.2940  0.0056  -2.5370   0.0000   0.0000   0.0000   0.9801
  -5.300   0.2929   0.00876   0.00244  -0.2012  0.2898  0.0056  -2.4722   0.0000   0.0000   0.0000   0.9511
  -5.200   0.3047   0.00876   0.00242  -0.2014  0.2855  0.0055  -2.4093   0.0000   0.0000   0.0000   0.9241
  -5.100   0.3166   0.00875   0.00240  -0.2015  0.2810  0.0055  -2.3481   0.0000   0.0000   0.0000   0.8990
  -5.000   0.3285   0.00873   0.00238  -0.2017  0.2786  0.0055  -2.2885   0.0000   0.0000   0.0000   0.8756
  -4.900   0.3405   0.00871   0.00235  -0.2018  0.2780  0.0054  -2.2303   0.0000   0.0000   0.0000   0.8538
  -4.800   0.3525   0.00869   0.00232  -0.2020  0.2772  0.0054  -2.1736   0.0000   0.0000   0.0000   0.8335
  -4.700   0.3645   0.00866   0.00230  -0.2021  0.2763  0.0054  -2.1184   0.0000   0.0000   0.0000   0.8145
  -4.600   0.3765   0.00865   0.00227  -0.2023  0.2751  0.0053  -2.0647   0.0000   0.0000   0.0000   0.7967
  -4.500   0.3885   0.00862   0.00224  -0.2025  0.2746  0.0053  -2.0123   0.0000   0.0000   0.0000   0.7800
  -4.300   0.4108   0.00872   0.00223  -0.2025  0.2492  0.0052  -1.9168   0.0000   0.0000   0.0000   0.7508
  -4.200   0.4227   0.00872   0.00221  -0.2026  0.2462  0.0052  -1.8695   0.0000   0.0000   0.0000   0.7369
  -4.100   0.4345   0.00872   0.00218  -0.2027  0.2432  0.0052  -1.8244   0.0000   0.0000   0.0000   0.7237
  -4.000   0.4467   0.00869   0.00211  -0.2029  0.2402  0.0052  -1.8167   0.0000   0.0000   0.0000   0.7110
  -3.900   0.4586   0.00869   0.00208  -0.2031  0.2373  0.0052  -1.7867   0.0000   0.0000   0.0000   0.6991
  -3.800   0.4704   0.00869   0.00207  -0.2032  0.2343  0.0052  -1.7469   0.0000   0.0000   0.0000   0.6879
  -3.700   0.4822   0.00869   0.00206  -0.2033  0.2312  0.0052  -1.7064   0.0000   0.0000   0.0000   0.6773
  -3.600   0.4940   0.00868   0.00205  -0.2034  0.2277  0.0054  -1.6711   0.0000   0.0000   0.0000   0.6671
  -3.500   0.5068   0.00862   0.00203  -0.2038  0.2245  0.0139  -1.6796   0.0000   0.0000   0.0000   0.6571
  -3.400   0.5185   0.00862   0.00203  -0.2039  0.2222  0.0144  -1.6162   0.0000   0.0000   0.0000   0.6479
  -3.300   0.5302   0.00862   0.00203  -0.2040  0.2217  0.0147  -1.5522   0.0000   0.0000   0.0000   0.6391
  -3.200   0.5419   0.00862   0.00203  -0.2041  0.2213  0.0150  -1.4876   0.0000   0.0000   0.0000   0.6307
  -3.100   0.5536   0.00863   0.00204  -0.2042  0.2208  0.0153  -1.4219   0.0000   0.0000   0.0000   0.6227
  -3.000   0.5652   0.00864   0.00204  -0.2043  0.2202  0.0155  -1.3552   0.0000   0.0000   0.0000   0.6150
  -2.900   0.5768   0.00865   0.00206  -0.2044  0.2196  0.0157  -1.2883   0.0000   0.0000   0.0000   0.6077
  -2.800   0.5884   0.00866   0.00207  -0.2045  0.2187  0.0159  -1.2229   0.0000   0.0000   0.0000   0.6006
  -2.700   0.6001   0.00867   0.00208  -0.2045  0.2179  0.0161  -1.1609   0.0000   0.0000   0.0000   0.5938
  -2.600   0.6118   0.00867   0.00208  -0.2047  0.2176  0.0162  -1.1039   0.0000   0.0000   0.0000   0.5872
  -2.500   0.6220   0.00880   0.00214  -0.2045  0.1979  0.0162  -1.0578   0.0000   0.0000   0.0000   0.5812
  -2.400   0.6338   0.00882   0.00213  -0.2046  0.1940  0.0161  -1.0246   0.0000   0.0000   0.0000   0.5751
  -2.300   0.6442   0.00894   0.00214  -0.2045  0.1701  0.0156  -1.0122   0.0000   0.0000   0.0000   0.5694
  -2.200   0.6558   0.00895   0.00214  -0.2045  0.1697  0.0157  -0.9569   0.0000   0.0000   0.0000   0.5637
  -2.100   0.6674   0.00897   0.00215  -0.2046  0.1693  0.0159  -0.9262   0.0000   0.0000   0.0000   0.5582
  -2.000   0.6791   0.00898   0.00216  -0.2047  0.1689  0.0160  -0.9350   0.0000   0.0000   0.0000   0.5529
  -1.900   0.6907   0.00899   0.00217  -0.2048  0.1684  0.0162  -0.9437   0.0000   0.0000   0.0000   0.5478
  -1.800   0.7023   0.00900   0.00218  -0.2049  0.1679  0.0163  -0.9525   0.0000   0.0000   0.0000   0.5428
  -1.700   0.7139   0.00901   0.00219  -0.2050  0.1673  0.0164  -0.9613   0.0000   0.0000   0.0000   0.5380
  -1.600   0.7255   0.00902   0.00220  -0.2051  0.1665  0.0165  -0.9715   0.0000   0.0000   0.0000   0.5334
  -1.500   0.7371   0.00904   0.00221  -0.2052  0.1660  0.0165  -0.9818   0.0000   0.0000   0.0000   0.5289
  -1.300   0.7587   0.00920   0.00230  -0.2050  0.1460  0.0166  -1.0022   0.0000   0.0000   0.0000   0.5204
  -1.200   0.7701   0.00923   0.00232  -0.2051  0.1444  0.0167  -1.0126   0.0000   0.0000   0.0000   0.5163
  -1.100   0.7816   0.00925   0.00233  -0.2052  0.1429  0.0167  -1.0229   0.0000   0.0000   0.0000   0.5123
  -1.000   0.7930   0.00928   0.00235  -0.2052  0.1413  0.0168  -1.0332   0.0000   0.0000   0.0000   0.5085
  -0.900   0.8043   0.00932   0.00237  -0.2052  0.1398  0.0168  -1.0435   0.0000   0.0000   0.0000   0.5047
  -0.800   0.8157   0.00935   0.00239  -0.2053  0.1383  0.0168  -1.0538   0.0000   0.0000   0.0000   0.5010
  -0.700   0.8270   0.00938   0.00241  -0.2053  0.1362  0.0168  -1.0640   0.0000   0.0000   0.0000   0.4975
  -0.600   0.8383   0.00942   0.00243  -0.2053  0.1328  0.0169  -1.0743   0.0000   0.0000   0.0000   0.4940
  -0.500   0.8497   0.00945   0.00245  -0.2054  0.1286  0.0170  -1.0846   0.0000   0.0000   0.0000   0.4906
  -0.200   0.8840   0.00951   0.00249  -0.2056  0.1239  0.0186  -1.1158   0.0000   0.0000   0.0000   0.4810
  -0.100   0.8955   0.00954   0.00251  -0.2056  0.1237  0.0186  -1.1262   0.0000   0.0000   0.0000   0.4779
   0.000   0.9069   0.00956   0.00253  -0.2057  0.1234  0.0186  -1.1366   0.0000   0.0000   0.0000   0.4750
   0.100   0.9183   0.00958   0.00255  -0.2057  0.1231  0.0186  -1.1470   0.0000   0.0000   0.0000   0.4720
   0.200   0.9297   0.00961   0.00258  -0.2058  0.1228  0.0184  -1.1575   0.0000   0.0000   0.0000   0.4692
   0.300   0.9411   0.00964   0.00260  -0.2058  0.1224  0.0182  -1.1679   0.0000   0.0000   0.0000   0.4664
   0.400   0.9524   0.00966   0.00263  -0.2058  0.1220  0.0180  -1.1783   0.0000   0.0000   0.0000   0.4637
   0.500   0.9637   0.00969   0.00266  -0.2059  0.1214  0.0178  -1.1887   0.0000   0.0000   0.0000   0.4610
   0.600   0.9750   0.00972   0.00269  -0.2059  0.1207  0.0177  -1.1991   0.0000   0.0000   0.0000   0.4585
   0.700   0.9862   0.00976   0.00273  -0.2059  0.1197  0.0176  -1.2112   0.0000   0.0000   0.0000   0.4559
   0.800   0.9966   0.00987   0.00281  -0.2058  0.1101  0.0175  -1.2232   0.0000   0.0000   0.0000   0.4535
   0.900   1.0070   0.00997   0.00288  -0.2056  0.1030  0.0176  -1.2352   0.0000   0.0000   0.0000   0.4510
   1.000   1.0181   0.01001   0.00292  -0.2056  0.1020  0.0176  -1.2476   0.0000   0.0000   0.0000   0.4487
   1.100   1.0292   0.01006   0.00297  -0.2056  0.1009  0.0179  -1.2599   0.0000   0.0000   0.0000   0.4463
   1.200   1.0402   0.01011   0.00301  -0.2056  0.0998  0.0215  -1.2721   0.0000   0.0000   0.0000   0.4441
   1.300   1.0510   0.01017   0.00305  -0.2055  0.0988  0.0248  -1.2855   0.0000   0.0000   0.0000   0.4418
   1.400   1.0621   0.01021   0.00311  -0.2055  0.0976  0.0263  -1.3006   0.0000   0.0000   0.0000   0.4396
   1.500   1.0734   0.01025   0.00315  -0.2056  0.0965  0.0344  -1.3158   0.0000   0.0000   0.0000   0.4375
   1.600   1.0845   0.01029   0.00319  -0.2056  0.0953  0.0358  -1.3307   0.0000   0.0000   0.0000   0.4354
   1.700   1.0955   0.01034   0.00323  -0.2055  0.0941  0.0366  -1.3458   0.0000   0.0000   0.0000   0.4333
   1.800   1.1066   0.01038   0.00327  -0.2055  0.0927  0.0371  -1.3608   0.0000   0.0000   0.0000   0.4313
   1.900   1.1176   0.01042   0.00331  -0.2055  0.0913  0.0376  -1.3759   0.0000   0.0000   0.0000   0.4293
   2.000   1.1286   0.01047   0.00335  -0.2055  0.0898  0.0380  -1.3910   0.0000   0.0000   0.0000   0.4274
   2.100   1.1397   0.01051   0.00339  -0.2055  0.0884  0.0383  -1.4061   0.0000   0.0000   0.0000   0.4255
   2.200   1.1507   0.01055   0.00343  -0.2055  0.0872  0.0399  -1.4212   0.0000   0.0000   0.0000   0.4236
   2.300   1.1618   0.01059   0.00348  -0.2055  0.0862  0.0467  -1.4364   0.0000   0.0000   0.0000   0.4217
   2.400   1.1726   0.01064   0.00354  -0.2054  0.0841  0.0488  -1.4514   0.0000   0.0000   0.0000   0.4199
   2.500   1.1834   0.01070   0.00360  -0.2054  0.0826  0.0510  -1.4664   0.0000   0.0000   0.0000   0.4181
   2.700   1.2027   0.01103   0.00386  -0.2049  0.0627  0.0669  -1.5067   0.0000   0.0000   0.0000   0.4147
   2.800   1.2131   0.01112   0.00393  -0.2047  0.0597  0.0764  -1.5255   0.0000   0.0000   0.0000   0.4130
   2.900   1.2239   0.01117   0.00399  -0.2047  0.0570  0.0818  -1.5440   0.0000   0.0000   0.0000   0.4113
   3.000   1.2348   0.01123   0.00405  -0.2047  0.0544  0.0888  -1.5627   0.0000   0.0000   0.0000   0.4097
   3.100   1.2459   0.01127   0.00410  -0.2047  0.0525  0.1008  -1.5837   0.0000   0.0000   0.0000   0.4080
   3.200   1.2566   0.01133   0.00416  -0.2046  0.0516  0.1026  -1.6064   0.0000   0.0000   0.0000   0.4065
   3.300   1.2673   0.01138   0.00421  -0.2046  0.0513  0.1044  -1.6294   0.0000   0.0000   0.0000   0.4049
   3.400   1.2781   0.01144   0.00427  -0.2045  0.0510  0.1111  -1.6527   0.0000   0.0000   0.0000   0.4033
   3.500   1.2889   0.01149   0.00433  -0.2045  0.0505  0.1173  -1.6761   0.0000   0.0000   0.0000   0.4018
   3.600   1.2996   0.01155   0.00440  -0.2044  0.0500  0.1231  -1.6998   0.0000   0.0000   0.0000   0.4003
   3.700   1.3108   0.01159   0.00446  -0.2045  0.0494  0.1438  -1.7241   0.0000   0.0000   0.0000   0.3989
   3.800   1.3213   0.01166   0.00453  -0.2044  0.0485  0.1451  -1.7481   0.0000   0.0000   0.0000   0.3974
   3.900   1.3323   0.01168   0.00457  -0.2044  0.0506  0.1449  -1.7719   0.0000   0.0000   0.0000   0.3960
   4.000   1.3429   0.01174   0.00463  -0.2043  0.0504  0.1497  -1.8057   0.0000   0.0000   0.0000   0.3946
   4.100   1.3537   0.01179   0.00470  -0.2043  0.0501  0.1616  -1.8401   0.0000   0.0000   0.0000   0.3932
   4.200   1.3648   0.01184   0.00478  -0.2043  0.0494  0.1820  -1.8752   0.0000   0.0000   0.0000   0.3918
   4.300   1.3753   0.01191   0.00486  -0.2043  0.0479  0.1945  -1.9099   0.0000   0.0000   0.0000   0.3905
   4.400   1.3854   0.01201   0.00496  -0.2041  0.0457  0.2048  -1.9441   0.0000   0.0000   0.0000   0.3891
   4.500   1.3957   0.01211   0.00507  -0.2040  0.0430  0.2206  -1.9786   0.0000   0.0000   0.0000   0.3878
   4.600   1.4066   0.01218   0.00516  -0.2040  0.0403  0.2481  -2.0139   0.0000   0.0000   0.0000   0.3866
   4.700   1.4171   0.01225   0.00525  -0.2040  0.0384  0.2625  -2.0489   0.0000   0.0000   0.0000   0.3853
   4.800   1.4290   0.01226   0.00533  -0.2042  0.0381  0.3040  -2.0864   0.0000   0.0000   0.0000   0.3841
   4.900   1.4393   0.01233   0.00541  -0.2041  0.0379  0.3097  -2.1220   0.0000   0.0000   0.0000   0.3829
   5.000   1.4504   0.01238   0.00549  -0.2042  0.0377  0.3335  -2.1588   0.0000   0.0000   0.0000   0.3817
   5.100   1.4617   0.01241   0.00558  -0.2043  0.0374  0.3667  -2.1964   0.0000   0.0000   0.0000   0.3806
   5.200   1.4721   0.01248   0.00566  -0.2042  0.0371  0.3780  -2.2327   0.0000   0.0000   0.0000   0.3793
   5.300   1.4837   0.01251   0.00577  -0.2045  0.0368  0.4187  -2.2713   0.0000   0.0000   0.0000   0.3782
   5.400   1.4951   0.01256   0.00587  -0.2046  0.0363  0.4581  -2.3098   0.0000   0.0000   0.0000   0.3772
   5.500   1.5058   0.01262   0.00599  -0.2046  0.0354  0.4872  -2.3480   0.0000   0.0000   0.0000   0.3760
   5.600   1.5134   0.01289   0.00620  -0.2040  0.0276  0.4932  -2.3853   0.0000   0.0000   0.0000   0.3748
   5.700   1.5222   0.01306   0.00634  -0.2036  0.0236  0.4961  -2.4151   0.0000   0.0000   0.0000   0.3736
   5.800   1.5308   0.01324   0.00650  -0.2032  0.0204  0.4980  -2.4394   0.0000   0.0000   0.0000   0.3724
   6.000   1.5446   0.01384   0.00706  -0.2016  0.0042  0.5059  -2.5068   0.0000   0.0000   0.0000   0.3699
   6.100   1.5539   0.01396   0.00719  -0.2013  0.0039  0.5114  -2.5435   0.0000   0.0000   0.0000   0.3687
   6.200   1.5633   0.01407   0.00731  -0.2010  0.0037  0.5161  -2.5795   0.0000   0.0000   0.0000   0.3676
   6.300   1.5726   0.01418   0.00743  -0.2007  0.0035  0.5203  -2.6156   0.0000   0.0000   0.0000   0.3665
   6.400   1.5819   0.01430   0.00754  -0.2004  0.0033  0.5240  -2.6517   0.0000   0.0000   0.0000   0.3654
   6.500   1.5911   0.01441   0.00766  -0.2001  0.0032  0.5271  -2.6878   0.0000   0.0000   0.0000   0.3643
   6.600   1.6002   0.01452   0.00777  -0.1998  0.0030  0.5307  -2.7238   0.0000   0.0000   0.0000   0.3632
   6.700   1.6093   0.01464   0.00789  -0.1994  0.0028  0.5359  -2.7598   0.0000   0.0000   0.0000   0.3621
   6.800   1.6186   0.01475   0.00802  -0.1992  0.0026  0.5482  -2.7963   0.0000   0.0000   0.0000   0.3611
   6.900   1.6278   0.01486   0.00814  -0.1989  0.0025  0.5563  -2.8327   0.0000   0.0000   0.0000   0.3600
   7.000   1.6366   0.01498   0.00827  -0.1985  0.0023  0.5602  -2.8687   0.0000   0.0000   0.0000   0.3589
   7.100   1.6453   0.01510   0.00839  -0.1980  0.0021  0.5619  -2.9046   0.0000   0.0000   0.0000   0.3579
   7.200   1.6538   0.01523   0.00852  -0.1976  0.0020  0.5633  -2.9405   0.0000   0.0000   0.0000   0.3568
   7.300   1.6621   0.01535   0.00864  -0.1971  0.0019  0.5646  -2.9760   0.0000   0.0000   0.0000   0.3558
   7.400   1.6696   0.01548   0.00877  -0.1965  0.0017  0.5663  -3.0102   0.0000   0.0000   0.0000   0.3547
   7.500   1.6766   0.01560   0.00890  -0.1957  0.0016  0.5724  -3.0435   0.0000   0.0000   0.0000   0.3536
   7.600   1.6839   0.01573   0.00904  -0.1950  0.0015  0.5793  -3.0776   0.0000   0.0000   0.0000   0.3525
   7.700   1.6912   0.01586   0.00918  -0.1943  0.0014  0.5859  -3.1119   0.0000   0.0000   0.0000   0.3514
   7.800   1.6984   0.01600   0.00933  -0.1937  0.0014  0.5920  -3.1461   0.0000   0.0000   0.0000   0.3503
   7.900   1.7055   0.01614   0.00948  -0.1929  0.0013  0.5967  -3.1801   0.0000   0.0000   0.0000   0.3493
   8.000   1.7128   0.01628   0.00964  -0.1923  0.0013  0.6075  -3.2148   0.0000   0.0000   0.0000   0.3482
   8.100   1.7203   0.01643   0.00981  -0.1917  0.0013  0.6177  -3.2498   0.0000   0.0000   0.0000   0.3472
   8.200   1.7273   0.01658   0.00998  -0.1910  0.0013  0.6210  -3.2843   0.0000   0.0000   0.0000   0.3462
   8.300   1.7342   0.01674   0.01015  -0.1903  0.0013  0.6270  -3.3185   0.0000   0.0000   0.0000   0.3452
   8.400   1.7410   0.01691   0.01032  -0.1895  0.0013  0.6315  -3.3525   0.0000   0.0000   0.0000   0.3441
   8.500   1.7481   0.01707   0.01051  -0.1889  0.0013  0.6428  -3.3874   0.0000   0.0000   0.0000   0.3431
   8.600   1.7551   0.01724   0.01070  -0.1882  0.0013  0.6512  -3.4222   0.0000   0.0000   0.0000   0.3421
   8.700   1.7618   0.01742   0.01089  -0.1875  0.0013  0.6576  -3.4565   0.0000   0.0000   0.0000   0.3411
   8.800   1.7685   0.01760   0.01108  -0.1867  0.0013  0.6643  -3.4907   0.0000   0.0000   0.0000   0.3402
   8.900   1.7754   0.01778   0.01129  -0.1861  0.0013  0.6747  -3.5257   0.0000   0.0000   0.0000   0.3392
   9.000   1.7822   0.01797   0.01149  -0.1854  0.0013  0.6813  -3.5604   0.0000   0.0000   0.0000   0.3382
   9.100   1.7887   0.01817   0.01170  -0.1847  0.0013  0.6859  -3.5948   0.0000   0.0000   0.0000   0.3373
   9.200   1.7950   0.01838   0.01192  -0.1839  0.0013  0.6890  -3.6286   0.0000   0.0000   0.0000   0.3363
   9.300   1.8011   0.01860   0.01215  -0.1831  0.0013  0.6911  -3.6715   0.0000   0.0000   0.0000   0.3353
   9.400   1.8073   0.01882   0.01238  -0.1824  0.0013  0.6967  -3.7165   0.0000   0.0000   0.0000   0.3344
   9.500   1.8135   0.01905   0.01262  -0.1816  0.0013  0.7029  -3.7616   0.0000   0.0000   0.0000   0.3334
   9.600   1.8193   0.01929   0.01288  -0.1808  0.0012  0.7083  -3.8059   0.0000   0.0000   0.0000   0.3325
   9.700   1.8250   0.01954   0.01315  -0.1800  0.0012  0.7131  -3.8499   0.0000   0.0000   0.0000   0.3315
   9.800   1.8307   0.01980   0.01342  -0.1792  0.0012  0.7176  -3.8942   0.0000   0.0000   0.0000   0.3306
   9.900   1.8366   0.02006   0.01370  -0.1784  0.0012  0.7222  -3.9388   0.0000   0.0000   0.0000   0.3297
  10.000   1.8423   0.02033   0.01400  -0.1777  0.0012  0.7320  -3.9832   0.0000   0.0000   0.0000   0.3288
  10.100   1.8478   0.02062   0.01431  -0.1769  0.0012  0.7405  -4.0269   0.0000   0.0000   0.0000   0.3279
  10.200   1.8533   0.02092   0.01463  -0.1761  0.0012  0.7472  -4.0705   0.0000   0.0000   0.0000   0.3270
  10.300   1.8589   0.02121   0.01495  -0.1754  0.0012  0.7544  -4.1145   0.0000   0.0000   0.0000   0.3261
  10.400   1.8644   0.02153   0.01529  -0.1746  0.0012  0.7648  -4.1582   0.0000   0.0000   0.0000   0.3252
  10.500   1.8694   0.02187   0.01567  -0.1738  0.0012  0.7736  -4.1996   0.0000   0.0000   0.0000   0.3243
  10.600   1.8747   0.02220   0.01604  -0.1731  0.0012  0.7839  -4.2721   0.0000   0.0000   0.0000   0.3235
  10.700   1.8803   0.02254   0.01641  -0.1724  0.0012  0.7967  -4.3451   0.0000   0.0000   0.0000   0.3226
  10.800   1.8851   0.02291   0.01682  -0.1716  0.0012  0.8071  -4.4138   0.0000   0.0000   0.0000   0.3218
  10.900   1.8899   0.02330   0.01725  -0.1708  0.0012  0.8212  -4.4810   0.0000   0.0000   0.0000   0.3209
  11.000   1.8948   0.02369   0.01769  -0.1701  0.0012  0.8353  -4.5465   0.0000   0.0000   0.0000   0.3201
