XFLR5 v6.02 Beta

 Calculated polar for: WORTMANN FX 63-137

 1 1 Reynolds number fixed          Mach number fixed         

 xtrf =   1.000 (top)        1.000 (bottom)
 Mach =   0.000     Re =    14.500 e 6     Ncrit =   9.000

  alpha     CL        CD       CDp       CM    Top Xtr Bot Xtr   Cpmin    Chinge    XCp    
 ------- -------- --------- --------- -------- ------- ------- -------- --------- ---------
 -20.000  -1.0480   0.05369   0.05095  -0.1457  0.7720  0.0033  -22.6055   0.0000   0.0776
 -19.500  -1.0802   0.04253   0.03956  -0.1556  0.7463  0.0033  -22.9173   0.0000   0.0746
 -19.000  -1.0924   0.03475   0.03159  -0.1626  0.7208  0.0033  -22.8171   0.0000   0.0715
 -18.500  -1.0912   0.02895   0.02568  -0.1677  0.7161  0.0033  -22.4587   0.0000   0.0682
 -18.000  -1.0781   0.02496   0.02152  -0.1708  0.6766  0.0034  -21.8878   0.0000   0.0647
 -17.500  -1.0642   0.02144   0.01790  -0.1728  0.6651  0.0034  -21.2878   0.0000   0.0621
 -17.000  -1.0286   0.01857   0.01496  -0.1771  0.6598  0.0034  -20.4287   0.0000   0.0532
 -16.500  -0.9824   0.01635   0.01253  -0.1822  0.6035  0.0035  -19.4531   0.0000   0.0405
 -16.000  -0.9307   0.01499   0.01097  -0.1856  0.5482  0.0036  -18.4070   0.0000   0.0270
 -15.500  -0.8768   0.01404   0.00994  -0.1874  0.5343  0.0036  -17.3415   0.0000   0.0131
 -14.500  -0.7418   0.02300   0.01977  -0.1703  0.4970  0.0037  -14.4548   0.0000  -0.0029
 -13.500  -0.6583   0.01162   0.00697  -0.1916  0.3709  0.0038  -13.3061   0.0000  -0.0639
 -13.000  -0.6009   0.01114   0.00638  -0.1926  0.3549  0.0039  -12.3401   0.0000  -0.0937
 -12.500  -0.5426   0.01066   0.00585  -0.1937  0.3398  0.0039  -11.3962   0.0000  -0.1308
 -12.000  -0.4836   0.01020   0.00535  -0.1948  0.3373  0.0040  -10.4785   0.0000  -0.1776
 -11.000  -0.3662   0.00947   0.00448  -0.1968  0.3047  0.0041  -8.7933   0.0000  -0.3157
 -10.500  -0.3083   0.00924   0.00410  -0.1976  0.2518  0.0042  -8.0316   0.0000  -0.4218
 -10.000  -0.2491   0.00896   0.00373  -0.1985  0.2297  0.0043  -7.2943   0.0000  -0.5825
  -9.500  -0.1890   0.00866   0.00338  -0.1995  0.2216  0.0043  -6.5918   0.0000  -0.8494
  -9.000  -0.1296   0.00846   0.00309  -0.2004  0.1977  0.0043  -5.9612   0.0000  -1.3551
  -4.000   0.4672   0.00749   0.00178  -0.2077  0.1258  0.0045  -1.9478   0.0000   0.7012
  -3.500   0.5262   0.00749   0.00177  -0.2083  0.1239  0.0046  -1.6553   0.0000   0.6508
  -3.000   0.5849   0.00752   0.00179  -0.2088  0.1214  0.0083  -1.3766   0.0000   0.6106
  -2.500   0.6425   0.00765   0.00185  -0.2091  0.1002  0.0095  -1.1196   0.0000   0.5779
  -2.000   0.7004   0.00773   0.00189  -0.2095  0.0944  0.0096  -0.9485   0.0000   0.5505
  -1.500   0.7589   0.00778   0.00193  -0.2100  0.0912  0.0149  -0.9980   0.0000   0.5272
  -1.000   0.8168   0.00786   0.00200  -0.2103  0.0853  0.0154  -1.0499   0.0000   0.5072
  -0.500   0.8745   0.00795   0.00208  -0.2107  0.0840  0.0157  -1.1022   0.0000   0.4898
   0.000   0.9319   0.00806   0.00218  -0.2110  0.0832  0.0159  -1.1547   0.0000   0.4745
   0.500   0.9892   0.00817   0.00229  -0.2113  0.0826  0.0163  -1.2080   0.0000   0.4610
   1.000   1.0464   0.00827   0.00238  -0.2115  0.0834  0.0172  -1.2706   0.0000   0.4489
   1.500   1.1031   0.00841   0.00252  -0.2117  0.0828  0.0189  -1.3456   0.0000   0.4379
   2.000   1.1578   0.00870   0.00275  -0.2115  0.0669  0.0250  -1.4198   0.0000   0.4280
   3.000   1.2617   0.00970   0.00354  -0.2101  0.0045  0.0441  -1.6093   0.0000   0.4104
   3.500   1.3163   0.00996   0.00380  -0.2099  0.0037  0.0648  -1.7253   0.0000   0.4026
   4.000   1.3701   0.01024   0.00406  -0.2096  0.0044  0.0665  -1.8568   0.0000   0.3954
   4.500   1.4231   0.01055   0.00437  -0.2092  0.0035  0.0747  -2.0307   0.0000   0.3887
   5.000   1.4760   0.01088   0.00471  -0.2088  0.0027  0.1022  -2.2098   0.0000   0.3823
   5.500   1.5281   0.01122   0.00506  -0.2083  0.0020  0.1284  -2.3921   0.0000   0.3764
   6.000   1.5820   0.01150   0.00547  -0.2082  0.0013  0.2480  -2.5816   0.0000   0.3709
   6.500   1.6327   0.01189   0.00588  -0.2075  0.0013  0.2746  -2.7710   0.0000   0.3655
   7.000   1.6830   0.01230   0.00632  -0.2067  0.0013  0.3203  -2.9639   0.0000   0.3604
   8.000   1.7790   0.01324   0.00731  -0.2043  0.0012  0.3697  -3.3544   0.0000   0.3507
   9.000   1.8705   0.01429   0.00851  -0.2013  0.0012  0.4911  -3.7837   0.0000   0.3416
   9.500   1.9032   0.01494   0.00917  -0.1971  0.0012  0.4997  -4.0228   0.0000   0.3367
  10.000   1.9362   0.01567   0.00996  -0.1932  0.0011  0.5390  -4.4161   0.0000   0.3320
  10.500   1.9679   0.01653   0.01087  -0.1892  0.0011  0.5629  -4.9161   0.0000   0.3274
  11.000   1.9988   0.01752   0.01191  -0.1853  0.0011  0.5952  -5.4328   0.0000   0.3229
  11.500   2.0275   0.01867   0.01312  -0.1813  0.0011  0.6305  -5.9575   0.0000   0.3186
  12.000   2.0556   0.02000   0.01453  -0.1775  0.0011  0.6733  -6.4978   0.0000   0.3145
  12.500   2.0815   0.02152   0.01611  -0.1736  0.0010  0.7006  -7.0637   0.0000   0.3105
  13.000   2.1037   0.02334   0.01801  -0.1696  0.0010  0.7330  -7.6100   0.0000   0.3066
  13.500   2.1250   0.02547   0.02024  -0.1659  0.0009  0.7832  -8.1665   0.0000   0.3030
  14.000   2.1477   0.02786   0.02277  -0.1629  0.0009  0.8683  -8.7501   0.0000   0.2996
  14.500   2.1674   0.03053   0.02564  -0.1600  0.0009  1.0000  -9.3283   0.0000   0.2964
  15.000   2.1823   0.03362   0.02879  -0.1566  0.0009  1.0000  -9.8843   0.0000   0.2931
  15.500   2.1945   0.03713   0.03235  -0.1535  0.0008  1.0000  -10.4337   0.0000   0.2901
  16.000   2.2038   0.04098   0.03627  -0.1505  0.0008  1.0000  -10.9739   0.0000   0.2872
  16.500   2.2105   0.04537   0.04073  -0.1478  0.0008  1.0000  -11.5025   0.0000   0.2844
  17.000   2.2212   0.04955   0.04497  -0.1457  0.0008  1.0000  -12.0776   0.0000   0.2818
  17.500   2.2236   0.05493   0.05044  -0.1437  0.0008  1.0000  -12.5895   0.0000   0.2795
  18.000   2.2232   0.06086   0.05645  -0.1421  0.0007  1.0000  -13.0842   0.0000   0.2774
  18.500   2.2204   0.06724   0.06292  -0.1409  0.0007  1.0000  -13.5657   0.0000   0.2755
  19.000   2.2147   0.07413   0.06992  -0.1401  0.0007  1.0000  -14.0216   0.0000   0.2738
  19.500   2.2159   0.07989   0.07575  -0.1394  0.0007  1.0000  -14.5523   0.0000   0.2720
  20.000   2.2025   0.08783   0.08381  -0.1394  0.0007  1.0000  -14.9395   0.0000   0.2708


