XFLR5 v6.02 Beta

 Calculated polar for: WORTMANN FX 63-137

 1 1 Reynolds number fixed          Mach number fixed         

 xtrf =   1.000 (top)        1.000 (bottom)
 Mach =   0.000     Re =     5.100 e 6     Ncrit =   9.000

  alpha     CL        CD       CDp       CM    Top Xtr Bot Xtr   Cpmin    Chinge    XCp    
 ------- -------- --------- --------- -------- ------- ------- -------- --------- ---------
 -16.000  -0.7230   0.04591   0.04363  -0.1468  0.9099  0.0042  -14.4420   0.0000   0.0179
 -15.500  -0.7506   0.03422   0.03141  -0.1587  0.8287  0.0042  -14.7194   0.0000   0.0119
 -15.000  -0.7505   0.02800   0.02492  -0.1642  0.7849  0.0042  -14.4748   0.0000   0.0061
 -14.500  -0.7407   0.02348   0.02022  -0.1678  0.7550  0.0042  -14.0667   0.0000  -0.0002
 -14.000  -0.7048   0.01974   0.01627  -0.1745  0.7299  0.0043  -13.3993   0.0000  -0.0206
 -13.500  -0.6497   0.01710   0.01352  -0.1818  0.7194  0.0044  -12.5313   0.0000  -0.0529
 -13.000  -0.5970   0.01603   0.01235  -0.1841  0.6888  0.0044  -11.6443   0.0000  -0.0816
  -6.500   0.1557   0.00857   0.00237  -0.2009  0.2862  0.0060  -3.4167   0.0000   1.5735
  -6.000   0.2153   0.00849   0.00227  -0.2016  0.2769  0.0058  -3.0520   0.0000   1.2087
  -5.500   0.2709   0.00873   0.00254  -0.2015  0.2489  0.0057  -2.5639   0.0000   1.0098
  -5.000   0.3298   0.00870   0.00243  -0.2021  0.2342  0.0054  -2.2656   0.0000   0.8747
  -4.500   0.3897   0.00860   0.00228  -0.2029  0.2218  0.0052  -1.9996   0.0000   0.7795
  -4.000   0.4506   0.00846   0.00205  -0.2039  0.2190  0.0050  -1.8171   0.0000   0.7091
  -3.500   0.5087   0.00854   0.00204  -0.2043  0.1924  0.0050  -1.6153   0.0000   0.6566
  -3.000   0.5676   0.00855   0.00204  -0.2049  0.1828  0.0150  -1.3880   0.0000   0.6146
  -2.500   0.6258   0.00860   0.00206  -0.2054  0.1710  0.0156  -1.1065   0.0000   0.5806
  -2.000   0.6822   0.00883   0.00215  -0.2055  0.1411  0.0156  -0.9370   0.0000   0.5526
  -1.500   0.7397   0.00894   0.00221  -0.2058  0.1336  0.0161  -0.9848   0.0000   0.5287
  -1.000   0.7973   0.00903   0.00228  -0.2061  0.1258  0.0164  -1.0364   0.0000   0.5082
  -0.500   0.8548   0.00913   0.00236  -0.2065  0.1226  0.0166  -1.0883   0.0000   0.4904
   1.500   1.0786   0.00993   0.00303  -0.2066  0.0889  0.0259  -1.3221   0.0000   0.4376
   2.000   1.1346   0.01010   0.00322  -0.2067  0.0844  0.0374  -1.3974   0.0000   0.4275
   2.500   1.1864   0.01059   0.00361  -0.2060  0.0602  0.0472  -1.4777   0.0000   0.4183
   3.000   1.2408   0.01086   0.00388  -0.2059  0.0506  0.0751  -1.5715   0.0000   0.4098
   3.500   1.2946   0.01116   0.00420  -0.2056  0.0458  0.1018  -1.6905   0.0000   0.4020
   4.000   1.3483   0.01142   0.00448  -0.2053  0.0462  0.1156  -1.8171   0.0000   0.3947
   4.500   1.4009   0.01178   0.00486  -0.2049  0.0378  0.1634  -1.9895   0.0000   0.3879
   5.000   1.4551   0.01203   0.00523  -0.2049  0.0365  0.2491  -2.1706   0.0000   0.3817
   5.500   1.5072   0.01258   0.00594  -0.2048  0.0176  0.4258  -2.3399   0.0000   0.3760
   6.000   1.5528   0.01338   0.00679  -0.2031  0.0034  0.4859  -2.5246   0.0000   0.3701
   6.500   1.6003   0.01389   0.00731  -0.2018  0.0024  0.4999  -2.7059   0.0000   0.3646
   7.000   1.6471   0.01442   0.00787  -0.2004  0.0018  0.5338  -2.8895   0.0000   0.3593
   7.500   1.6914   0.01501   0.00848  -0.1985  0.0014  0.5552  -3.0734   0.0000   0.3542
   8.000   1.7279   0.01565   0.00914  -0.1950  0.0013  0.5650  -3.2461   0.0000   0.3488
   8.500   1.7633   0.01638   0.00993  -0.1915  0.0013  0.5953  -3.4198   0.0000   0.3437
   9.000   1.7976   0.01721   0.01086  -0.1880  0.0013  0.6440  -3.5941   0.0000   0.3388
   9.500   1.8305   0.01819   0.01192  -0.1844  0.0012  0.6825  -3.8119   0.0000   0.3340
  10.000   1.8599   0.01935   0.01314  -0.1804  0.0012  0.7045  -4.0386   0.0000   0.3293
  10.500   1.8881   0.02071   0.01460  -0.1765  0.0012  0.7351  -4.3713   0.0000   0.3248
  11.000   1.9145   0.02233   0.01634  -0.1726  0.0012  0.7767  -4.7770   0.0000   0.3205
  11.500   1.9367   0.02440   0.01864  -0.1686  0.0012  0.8440  -5.0981   0.0000   0.3164
  14.500   2.0277   0.04287   0.03776  -0.1482  0.0010  1.0000  -7.8901   0.0000   0.2956
  15.500   2.0406   0.05238   0.04746  -0.1436  0.0010  1.0000  -8.8184   0.0000   0.2904
  16.000   2.0410   0.05824   0.05346  -0.1417  0.0010  1.0000  -9.2142   0.0000   0.2882
  16.500   2.0169   0.06752   0.06306  -0.1397  0.0010  1.0000  -9.2006   0.0000   0.2867
  17.000   2.0007   0.07613   0.07188  -0.1389  0.0010  1.0000  -9.3980   0.0000   0.2855
  17.500   1.9830   0.08494   0.08088  -0.1388  0.0010  1.0000  -9.6136   0.0000   0.2846
  18.000   1.9633   0.09462   0.09077  -0.1395  0.0010  1.0000  -9.8108   0.0000   0.2843
  18.500   1.9390   0.10534   0.10169  -0.1412  0.0010  1.0000  -9.9459   0.0000   0.2847


