XFLR5 v6.02 Beta

 Calculated polar for: WORTMANN FX 63-137

 1 1 Reynolds number fixed          Mach number fixed         

 xtrf =   1.000 (top)        1.000 (bottom)
 Mach =   0.000     Re =     6.500 e 6     Ncrit =   9.000

  alpha     CL        CD       CDp       CM    Top Xtr Bot Xtr   Cpmin    Chinge    XCp    
 ------- -------- --------- --------- -------- ------- ------- -------- --------- ---------
 -17.000  -0.7530   0.05579   0.05345  -0.1400  0.8479  0.0040  -15.4268   0.0000   0.0329
 -16.500  -0.8222   0.03791   0.03518  -0.1562  0.8211  0.0039  -16.4194   0.0000   0.0322
 -16.000  -0.8293   0.03046   0.02745  -0.1632  0.7835  0.0040  -16.2866   0.0000   0.0271
 -15.500  -0.8233   0.02521   0.02201  -0.1677  0.7571  0.0040  -15.9190   0.0000   0.0217
 -15.000  -0.8046   0.02122   0.01783  -0.1719  0.7285  0.0040  -15.3823   0.0000   0.0129
 -14.500  -0.7592   0.01804   0.01449  -0.1789  0.7144  0.0041  -14.5701   0.0000  -0.0086
 -14.000  -0.7056   0.01597   0.01221  -0.1842  0.6863  0.0042  -13.6662   0.0000  -0.0340
 -13.500  -0.6527   0.01467   0.01074  -0.1866  0.6648  0.0042  -12.7677   0.0000  -0.0588
 -13.000  -0.6009   0.01382   0.00964  -0.1878  0.6090  0.0043  -11.8900   0.0000  -0.0857
  -4.500   0.3920   0.00850   0.00234  -0.2036  0.1877  0.0052  -1.9656   0.0000   0.7781
  -4.000   0.4521   0.00841   0.00214  -0.2044  0.1779  0.0048  -1.7476   0.0000   0.7087
  -3.500   0.5127   0.00831   0.00198  -0.2052  0.1702  0.0046  -1.6013   0.0000   0.6553
  -3.000   0.5725   0.00825   0.00195  -0.2060  0.1689  0.0146  -1.3942   0.0000   0.6134
  -2.500   0.6292   0.00844   0.00204  -0.2062  0.1417  0.0152  -1.1256   0.0000   0.5801
  -2.000   0.6868   0.00855   0.00208  -0.2065  0.1252  0.0152  -0.9399   0.0000   0.5521
  -1.500   0.7450   0.00861   0.00213  -0.2069  0.1235  0.0158  -0.9884   0.0000   0.5283
  -1.000   0.8028   0.00869   0.00219  -0.2073  0.1224  0.0161  -1.0403   0.0000   0.5079
  -0.500   0.8587   0.00893   0.00235  -0.2073  0.1016  0.0164  -1.0911   0.0000   0.4903
   0.000   0.9154   0.00909   0.00247  -0.2075  0.0971  0.0166  -1.1428   0.0000   0.4748
   0.500   0.9721   0.00924   0.00258  -0.2077  0.0920  0.0171  -1.1949   0.0000   0.4611
   1.500   1.0847   0.00955   0.00289  -0.2079  0.0843  0.0240  -1.3284   0.0000   0.4377
   2.000   1.1410   0.00970   0.00308  -0.2080  0.0839  0.0368  -1.4036   0.0000   0.4276
   2.500   1.1927   0.01022   0.00347  -0.2073  0.0514  0.0433  -1.4856   0.0000   0.4184
   3.000   1.2468   0.01052   0.00377  -0.2071  0.0448  0.0670  -1.5857   0.0000   0.4100
   3.500   1.3004   0.01081   0.00404  -0.2067  0.0386  0.0793  -1.7025   0.0000   0.4021
   4.000   1.3546   0.01106   0.00432  -0.2066  0.0381  0.1016  -1.8287   0.0000   0.3949
   4.500   1.4077   0.01135   0.00463  -0.2062  0.0368  0.1233  -2.0036   0.0000   0.3881
   5.000   1.4575   0.01193   0.00518  -0.2053  0.0205  0.1933  -2.1685   0.0000   0.3818
   5.500   1.5065   0.01256   0.00588  -0.2043  0.0043  0.2784  -2.3502   0.0000   0.3757
   6.000   1.5607   0.01289   0.00644  -0.2045  0.0026  0.4348  -2.5399   0.0000   0.3704
   6.500   1.6098   0.01335   0.00693  -0.2035  0.0018  0.4671  -2.7240   0.0000   0.3649
   7.000   1.6576   0.01384   0.00746  -0.2023  0.0014  0.5043  -2.9107   0.0000   0.3597
   7.500   1.7033   0.01440   0.00805  -0.2007  0.0013  0.5310  -3.0980   0.0000   0.3546
   8.000   1.7458   0.01501   0.00868  -0.1984  0.0013  0.5415  -3.2830   0.0000   0.3496
   8.500   1.7797   0.01568   0.00939  -0.1945  0.0013  0.5599  -3.4548   0.0000   0.3443
   9.000   1.8139   0.01645   0.01021  -0.1908  0.0012  0.5897  -3.6299   0.0000   0.3393
   9.500   1.8474   0.01733   0.01117  -0.1872  0.0012  0.6370  -3.8615   0.0000   0.3346
  10.000   1.8796   0.01835   0.01227  -0.1836  0.0012  0.6784  -4.0984   0.0000   0.3299
  10.500   1.9083   0.01956   0.01355  -0.1795  0.0012  0.7021  -4.5257   0.0000   0.3254
  11.000   1.9360   0.02097   0.01504  -0.1757  0.0011  0.7314  -4.9868   0.0000   0.3211
  11.500   1.9612   0.02267   0.01686  -0.1718  0.0011  0.7744  -5.4337   0.0000   0.3169
  12.000   1.9816   0.02485   0.01925  -0.1676  0.0011  0.8393  -5.7817   0.0000   0.3128
  13.500   2.0449   0.03189   0.02658  -0.1578  0.0010  1.0000  -7.4685   0.0000   0.3021
  14.000   2.0609   0.03499   0.02974  -0.1547  0.0010  1.0000  -8.0001   0.0000   0.2988
  14.500   2.0734   0.03857   0.03340  -0.1517  0.0009  1.0000  -8.4966   0.0000   0.2957
  15.000   2.0823   0.04258   0.03749  -0.1488  0.0009  1.0000  -8.9786   0.0000   0.2928
  15.500   2.0890   0.04712   0.04212  -0.1462  0.0009  1.0000  -9.4550   0.0000   0.2901
  16.000   2.0937   0.05218   0.04729  -0.1440  0.0009  1.0000  -9.9118   0.0000   0.2876
  16.500   2.0969   0.05765   0.05286  -0.1422  0.0009  1.0000  -10.3796   0.0000   0.2853
  17.000   2.1028   0.06287   0.05817  -0.1408  0.0008  1.0000  -10.8806   0.0000   0.2831
  17.500   2.1003   0.06938   0.06479  -0.1397  0.0008  1.0000  -11.3161   0.0000   0.2813
  18.000   2.0950   0.07640   0.07193  -0.1392  0.0008  1.0000  -11.7313   0.0000   0.2798
  18.500   2.0862   0.08377   0.07943  -0.1389  0.0008  1.0000  -12.1183   0.0000   0.2785
  19.000   2.0751   0.09184   0.08763  -0.1393  0.0008  1.0000  -12.4821   0.0000   0.2776
  19.500   2.0737   0.09850   0.09439  -0.1397  0.0007  1.0000  -12.9556   0.0000   0.2763
  20.000   2.0595   0.10734   0.10337  -0.1412  0.0007  1.0000  -13.2888   0.0000   0.2760


