XFLR5 v6.02 Beta

 Calculated polar for: WORTMANN FX 63-137

 1 1 Reynolds number fixed          Mach number fixed         

 xtrf =   1.000 (top)        1.000 (bottom)
 Mach =   0.000     Re =     9.750 e 6     Ncrit =   9.000

  alpha     CL        CD       CDp       CM    Top Xtr Bot Xtr   Cpmin    Chinge    XCp    
 ------- -------- --------- --------- -------- ------- ------- -------- --------- ---------
 -17.000  -0.9491   0.02804   0.02476  -0.1668  0.7307  0.0036  -18.9560   0.0000   0.0479
 -16.500  -0.9367   0.02366   0.02027  -0.1704  0.7198  0.0037  -18.4447   0.0000   0.0431
 -16.000  -0.9134   0.02035   0.01681  -0.1738  0.6978  0.0037  -17.7854   0.0000   0.0358
 -15.500  -0.8698   0.01760   0.01388  -0.1795  0.6599  0.0038  -16.9113   0.0000   0.0203
 -15.000  -0.8160   0.01566   0.01180  -0.1848  0.6345  0.0038  -15.9255   0.0000   0.0005
 -14.500  -0.7634   0.01452   0.01052  -0.1869  0.6139  0.0039  -14.9468   0.0000  -0.0176
 -14.000  -0.7086   0.01352   0.00943  -0.1887  0.5973  0.0040  -13.9713   0.0000  -0.0391
 -13.500  -0.6589   0.01298   0.00853  -0.1891  0.4917  0.0040  -13.0725   0.0000  -0.0599
 -13.000  -0.6027   0.01226   0.00770  -0.1905  0.4650  0.0041  -12.1348   0.0000  -0.0892
 -12.500  -0.5461   0.01165   0.00696  -0.1916  0.4337  0.0041  -11.2236   0.0000  -0.1246
 -12.000  -0.4885   0.01109   0.00629  -0.1928  0.4134  0.0042  -10.3339   0.0000  -0.1693
 -11.500  -0.4295   0.01054   0.00569  -0.1941  0.4019  0.0043  -9.4551   0.0000  -0.2278
 -11.000  -0.3699   0.01002   0.00513  -0.1954  0.3993  0.0043  -8.6109   0.0000  -0.3062
  -3.500   0.5192   0.00793   0.00190  -0.2067  0.1394  0.0062  -1.6663   0.0000   0.6531
  -3.000   0.5783   0.00793   0.00189  -0.2074  0.1302  0.0133  -1.3976   0.0000   0.6122
  -2.500   0.6368   0.00797   0.00191  -0.2079  0.1230  0.0146  -1.1258   0.0000   0.5788
  -2.000   0.6951   0.00803   0.00195  -0.2083  0.1210  0.0146  -0.9452   0.0000   0.5511
  -1.500   0.7518   0.00822   0.00206  -0.2084  0.1008  0.0153  -0.9931   0.0000   0.5278
  -1.000   0.8092   0.00834   0.00213  -0.2087  0.0952  0.0157  -1.0446   0.0000   0.5076
  -0.500   0.8667   0.00845   0.00222  -0.2090  0.0903  0.0160  -1.0967   0.0000   0.4901
   0.000   0.9240   0.00856   0.00232  -0.2093  0.0851  0.0162  -1.1489   0.0000   0.4747
   1.000   1.0380   0.00880   0.00255  -0.2098  0.0840  0.0173  -1.2639   0.0000   0.4488
   1.500   1.0945   0.00894   0.00269  -0.2099  0.0836  0.0207  -1.3375   0.0000   0.4378
   2.000   1.1509   0.00909   0.00286  -0.2101  0.0830  0.0353  -1.4131   0.0000   0.4278
   2.500   1.2018   0.00968   0.00330  -0.2092  0.0424  0.0390  -1.4959   0.0000   0.4186
   3.000   1.2567   0.00991   0.00353  -0.2091  0.0377  0.0562  -1.6017   0.0000   0.4103
   3.500   1.3113   0.01015   0.00376  -0.2089  0.0368  0.0670  -1.7181   0.0000   0.4025
   4.000   1.3635   0.01055   0.00410  -0.2083  0.0263  0.0737  -1.8484   0.0000   0.3952
   4.500   1.4156   0.01095   0.00448  -0.2078  0.0169  0.1012  -2.0088   0.0000   0.3884
   5.000   1.4648   0.01154   0.00504  -0.2066  0.0039  0.1193  -2.1895   0.0000   0.3819
   5.500   1.5168   0.01190   0.00544  -0.2061  0.0030  0.1704  -2.3709   0.0000   0.3760
   6.000   1.5716   0.01216   0.00591  -0.2064  0.0016  0.3300  -2.5608   0.0000   0.3706
   6.500   1.6223   0.01257   0.00637  -0.2057  0.0014  0.3802  -2.7492   0.0000   0.3653
   7.500   1.7208   0.01347   0.00742  -0.2039  0.0013  0.4969  -3.1344   0.0000   0.3552
   8.000   1.7656   0.01403   0.00797  -0.2020  0.0013  0.4963  -3.3250   0.0000   0.3503
   8.500   1.8088   0.01463   0.00859  -0.2000  0.0012  0.5174  -3.5163   0.0000   0.3455
   9.000   1.8421   0.01529   0.00927  -0.1959  0.0012  0.5298  -3.7049   0.0000   0.3404
   9.500   1.8757   0.01603   0.01007  -0.1921  0.0012  0.5615  -3.9436   0.0000   0.3356
  10.000   1.9082   0.01690   0.01100  -0.1883  0.0012  0.5940  -4.2500   0.0000   0.3309
  10.500   1.9398   0.01790   0.01208  -0.1845  0.0011  0.6394  -4.7374   0.0000   0.3264
  11.000   1.9692   0.01907   0.01333  -0.1806  0.0011  0.6794  -5.2333   0.0000   0.3220
  11.500   1.9968   0.02043   0.01475  -0.1767  0.0011  0.7040  -5.7367   0.0000   0.3178
  12.000   2.0224   0.02203   0.01643  -0.1728  0.0011  0.7365  -6.2451   0.0000   0.3137
  14.000   2.1081   0.03105   0.02596  -0.1591  0.0009  1.0000  -8.4220   0.0000   0.2992
  14.500   2.1232   0.03417   0.02914  -0.1558  0.0009  1.0000  -8.9544   0.0000   0.2960
  15.000   2.1357   0.03770   0.03273  -0.1527  0.0009  1.0000  -9.4808   0.0000   0.2929
  15.500   2.1448   0.04162   0.03673  -0.1498  0.0009  1.0000  -9.9901   0.0000   0.2900
  16.000   2.1515   0.04608   0.04127  -0.1472  0.0008  1.0000  -10.4943   0.0000   0.2872
  16.500   2.1610   0.05047   0.04573  -0.1450  0.0008  1.0000  -11.0335   0.0000   0.2846
  17.000   2.1658   0.05562   0.05096  -0.1431  0.0008  1.0000  -11.5424   0.0000   0.2823
  17.500   2.1661   0.06152   0.05695  -0.1416  0.0008  1.0000  -12.0216   0.0000   0.2802
  18.000   2.1636   0.06794   0.06348  -0.1404  0.0008  1.0000  -12.4810   0.0000   0.2783
  18.500   2.1579   0.07491   0.07055  -0.1397  0.0007  1.0000  -12.9162   0.0000   0.2767
  19.000   2.1598   0.08062   0.07636  -0.1391  0.0007  1.0000  -13.4340   0.0000   0.2749
  19.500   2.1478   0.08852   0.08437  -0.1392  0.0007  1.0000  -13.8163   0.0000   0.2738
  20.000   2.1351   0.09685   0.09283  -0.1399  0.0007  1.0000  -14.1888   0.0000   0.2730


