XFLR5 v6.02 Beta

 Calculated polar for: WORTMANN FX 63-137

 1 1 Reynolds number fixed          Mach number fixed         

 xtrf =   1.000 (top)        1.000 (bottom)
 Mach =   0.000     Re =     8.500 e 6     Ncrit =   9.000

  alpha     CL        CD       CDp       CM    Top Xtr Bot Xtr   Cpmin    Chinge    XCp    
 ------- -------- --------- --------- -------- ------- ------- -------- --------- ---------
 -17.500  -0.5916   0.08779   0.08533  -0.1195  0.6919  0.0039  -12.7239   0.0000   0.0106
 -17.000  -0.5347   0.08996   0.08747  -0.1184  0.6706  0.0040  -11.5342   0.0000  -0.0096
 -16.500  -0.4360   0.10059   0.09781  -0.1113  0.5381  0.0041  -9.4826   0.0000  -0.0468
 -16.000  -0.4275   0.09415   0.09136  -0.1154  0.5309  0.0041  -9.3201   0.0000  -0.0607
 -15.000  -0.8153   0.01696   0.01322  -0.1816  0.6612  0.0039  -15.7948   0.0000   0.0042
 -14.500  -0.7605   0.01528   0.01146  -0.1857  0.6581  0.0040  -14.8199   0.0000  -0.0170
 -13.000  -0.1093   0.11164   0.10831  -0.1077  0.2876  0.0042  -3.0131   0.0000  -0.8290
 -12.500  -0.0951   0.10581   0.10248  -0.1104  0.2788  0.0044  -2.9127   0.0000  -1.0141
 -11.500  -0.4309   0.01089   0.00611  -0.1934  0.4406  0.0044  -9.4032   0.0000  -0.2246
  -4.000   0.4589   0.00798   0.00191  -0.2058  0.1682  0.0046  -1.8753   0.0000   0.7051
  -3.500   0.5171   0.00805   0.00193  -0.2062  0.1481  0.0067  -1.6656   0.0000   0.6538
  -3.000   0.5761   0.00806   0.00192  -0.2069  0.1403  0.0140  -1.3976   0.0000   0.6127
  -2.500   0.6341   0.00815   0.00196  -0.2073  0.1238  0.0148  -1.1276   0.0000   0.5793
  -2.000   0.6924   0.00820   0.00199  -0.2077  0.1224  0.0149  -0.9435   0.0000   0.5514
  -1.500   0.7505   0.00826   0.00204  -0.2081  0.1209  0.0155  -0.9923   0.0000   0.5278
  -1.000   0.8067   0.00849   0.00217  -0.2082  0.0997  0.0159  -1.0430   0.0000   0.5077
  -0.500   0.8639   0.00862   0.00226  -0.2084  0.0940  0.0161  -1.0947   0.0000   0.4902
   0.000   0.9211   0.00874   0.00237  -0.2087  0.0893  0.0163  -1.1469   0.0000   0.4747
   0.500   0.9781   0.00887   0.00249  -0.2089  0.0842  0.0168  -1.1992   0.0000   0.4610
   1.000   1.0349   0.00899   0.00261  -0.2091  0.0842  0.0173  -1.2614   0.0000   0.4488
   1.500   1.0913   0.00914   0.00276  -0.2093  0.0839  0.0215  -1.3345   0.0000   0.4378
   2.000   1.1477   0.00929   0.00293  -0.2094  0.0833  0.0359  -1.4100   0.0000   0.4278
   2.500   1.1989   0.00985   0.00335  -0.2086  0.0463  0.0401  -1.4927   0.0000   0.4186
   3.000   1.2534   0.01012   0.00361  -0.2084  0.0381  0.0653  -1.5971   0.0000   0.4102
   3.500   1.3078   0.01036   0.00385  -0.2082  0.0374  0.0692  -1.7130   0.0000   0.4024
   4.000   1.3616   0.01063   0.00411  -0.2079  0.0367  0.0787  -1.8429   0.0000   0.3951
   4.500   1.4119   0.01116   0.00458  -0.2070  0.0209  0.1031  -2.0047   0.0000   0.3883
   5.000   1.4612   0.01176   0.00516  -0.2059  0.0044  0.1445  -2.1826   0.0000   0.3818
   5.500   1.5130   0.01213   0.00558  -0.2054  0.0034  0.1960  -2.3635   0.0000   0.3759
   6.000   1.5683   0.01239   0.00608  -0.2058  0.0019  0.3706  -2.5542   0.0000   0.3705
   6.500   1.6187   0.01281   0.00655  -0.2051  0.0014  0.4205  -2.7417   0.0000   0.3652
   7.000   1.6674   0.01328   0.00706  -0.2040  0.0013  0.4566  -2.9309   0.0000   0.3600
   7.500   1.7149   0.01378   0.00762  -0.2028  0.0013  0.5027  -3.1222   0.0000   0.3550
   8.000   1.7593   0.01436   0.00821  -0.2009  0.0013  0.5118  -3.3115   0.0000   0.3501
   8.500   1.7994   0.01497   0.00885  -0.1982  0.0012  0.5304  -3.4964   0.0000   0.3451
   9.000   1.8321   0.01567   0.00957  -0.1940  0.0012  0.5439  -3.6771   0.0000   0.3400
   9.500   1.8659   0.01645   0.01042  -0.1903  0.0012  0.5811  -3.9154   0.0000   0.3352
  10.000   1.8992   0.01736   0.01140  -0.1868  0.0012  0.6273  -4.1947   0.0000   0.3306
  10.500   1.9297   0.01842   0.01254  -0.1829  0.0011  0.6620  -4.6710   0.0000   0.3261
  11.000   1.9581   0.01968   0.01386  -0.1789  0.0011  0.6932  -5.1555   0.0000   0.3217
  11.500   1.9847   0.02114   0.01540  -0.1750  0.0011  0.7197  -5.6455   0.0000   0.3174
  12.000   2.0099   0.02285   0.01721  -0.1712  0.0011  0.7638  -6.1394   0.0000   0.3134
  12.500   2.0323   0.02487   0.01937  -0.1674  0.0011  0.8243  -6.6205   0.0000   0.3095
  13.000   2.0584   0.02678   0.02153  -0.1646  0.0010  1.0000  -7.2461   0.0000   0.3060
  13.500   2.0773   0.02932   0.02411  -0.1611  0.0010  1.0000  -7.7752   0.0000   0.3025
  14.000   2.0939   0.03220   0.02705  -0.1577  0.0009  1.0000  -8.2997   0.0000   0.2991
  14.500   2.1084   0.03544   0.03035  -0.1545  0.0009  1.0000  -8.8229   0.0000   0.2959
  15.000   2.1204   0.03907   0.03405  -0.1515  0.0009  1.0000  -9.3409   0.0000   0.2928
  15.500   2.1282   0.04318   0.03824  -0.1486  0.0009  1.0000  -9.8342   0.0000   0.2899
  16.000   2.1346   0.04780   0.04295  -0.1461  0.0008  1.0000  -10.3303   0.0000   0.2873
  16.500   2.1391   0.05290   0.04813  -0.1440  0.0008  1.0000  -10.8221   0.0000   0.2848
  17.000   2.1409   0.05854   0.05387  -0.1423  0.0008  1.0000  -11.2999   0.0000   0.2826
  17.500   2.1480   0.06358   0.05899  -0.1409  0.0008  1.0000  -11.8323   0.0000   0.2804
  18.000   2.1447   0.07016   0.06567  -0.1399  0.0008  1.0000  -12.2799   0.0000   0.2786
  18.500   2.1387   0.07723   0.07286  -0.1393  0.0007  1.0000  -12.7066   0.0000   0.2771
  19.000   2.1287   0.08470   0.08045  -0.1391  0.0007  1.0000  -13.1041   0.0000   0.2758
  19.500   2.1166   0.09288   0.08876  -0.1396  0.0007  1.0000  -13.4757   0.0000   0.2749
  20.000   2.1149   0.09950   0.09547  -0.1400  0.0007  1.0000  -13.9522   0.0000   0.2737


