XFLR5 v6.02 Beta

 Calculated polar for: WORTMANN FX 63-137

 1 1 Reynolds number fixed          Mach number fixed         

 xtrf =   1.000 (top)        1.000 (bottom)
 Mach =   0.000     Re =     5.200 e 6     Ncrit =   9.000

  alpha     CL        CD       CDp       CM    Top Xtr Bot Xtr   Cpmin    Chinge    XCp    
 ------- -------- --------- --------- -------- ------- ------- -------- --------- ---------
 -16.000  -0.4882   0.08343   0.08120  -0.1205  0.7705  0.0043  -10.3307   0.0000  -0.0345
 -15.500  -0.4381   0.08458   0.08226  -0.1199  0.7186  0.0044  -9.3471   0.0000  -0.0626
 -15.000  -0.4069   0.08262   0.08020  -0.1210  0.6753  0.0045  -8.7229   0.0000  -0.0868
 -14.000  -0.7055   0.01938   0.01589  -0.1753  0.7253  0.0043  -13.4279   0.0000  -0.0215
 -13.500  -0.6495   0.01677   0.01316  -0.1826  0.7185  0.0043  -12.5525   0.0000  -0.0542
 -13.000  -0.5974   0.01571   0.01198  -0.1846  0.6842  0.0044  -11.6730   0.0000  -0.0823
  -6.500   0.1560   0.00855   0.00236  -0.2010  0.2813  0.0061  -3.4155   0.0000   1.5716
  -6.000   0.2156   0.00846   0.00226  -0.2017  0.2759  0.0058  -3.0496   0.0000   1.2076
  -5.500   0.2710   0.00872   0.00255  -0.2016  0.2457  0.0058  -2.5596   0.0000   1.0097
  -5.000   0.3300   0.00869   0.00244  -0.2022  0.2310  0.0055  -2.2624   0.0000   0.8744
  -4.500   0.3901   0.00858   0.00228  -0.2030  0.2214  0.0052  -1.9971   0.0000   0.7792
  -4.000   0.4510   0.00843   0.00204  -0.2039  0.2184  0.0049  -1.8150   0.0000   0.7089
  -3.500   0.5089   0.00853   0.00203  -0.2043  0.1904  0.0049  -1.6137   0.0000   0.6565
  -2.500   0.6263   0.00858   0.00205  -0.2055  0.1702  0.0156  -1.1088   0.0000   0.5805
  -2.000   0.6825   0.00881   0.00215  -0.2055  0.1398  0.0156  -0.9372   0.0000   0.5526
  -1.500   0.7401   0.00892   0.00220  -0.2059  0.1324  0.0161  -0.9851   0.0000   0.5287
  -1.000   0.7978   0.00900   0.00227  -0.2062  0.1248  0.0164  -1.0367   0.0000   0.5082
  -0.500   0.8553   0.00910   0.00236  -0.2066  0.1223  0.0166  -1.0886   0.0000   0.4904
   1.500   1.0791   0.00990   0.00302  -0.2067  0.0883  0.0257  -1.3227   0.0000   0.4376
   2.000   1.1351   0.01007   0.00321  -0.2068  0.0843  0.0374  -1.3979   0.0000   0.4275
   2.500   1.1869   0.01057   0.00360  -0.2061  0.0593  0.0469  -1.4783   0.0000   0.4183
   3.000   1.2414   0.01083   0.00387  -0.2060  0.0504  0.0743  -1.5725   0.0000   0.4098
   3.500   1.2950   0.01113   0.00419  -0.2057  0.0452  0.1014  -1.6917   0.0000   0.4020
   4.000   1.3487   0.01139   0.00447  -0.2054  0.0455  0.1137  -1.8180   0.0000   0.3947
   4.500   1.4014   0.01174   0.00484  -0.2050  0.0378  0.1598  -1.9906   0.0000   0.3880
   5.000   1.4557   0.01200   0.00521  -0.2050  0.0363  0.2480  -2.1720   0.0000   0.3818
   5.500   1.5072   0.01256   0.00591  -0.2048  0.0171  0.4092  -2.3399   0.0000   0.3760
   6.000   1.5534   0.01334   0.00676  -0.2032  0.0033  0.4808  -2.5257   0.0000   0.3702
   6.500   1.6012   0.01385   0.00728  -0.2019  0.0024  0.4993  -2.7075   0.0000   0.3646
   7.000   1.6480   0.01437   0.00784  -0.2005  0.0017  0.5324  -2.8914   0.0000   0.3593
   7.500   1.6924   0.01495   0.00844  -0.1987  0.0014  0.5532  -3.0755   0.0000   0.3542
   8.000   1.7294   0.01560   0.00910  -0.1953  0.0013  0.5643  -3.2492   0.0000   0.3489
   8.500   1.7646   0.01632   0.00989  -0.1917  0.0013  0.5923  -3.4226   0.0000   0.3437
   9.000   1.7989   0.01715   0.01080  -0.1882  0.0013  0.6392  -3.5969   0.0000   0.3388
   9.500   1.8320   0.01812   0.01186  -0.1846  0.0012  0.6797  -3.8162   0.0000   0.3340
  10.000   1.8614   0.01927   0.01306  -0.1806  0.0012  0.7021  -4.0434   0.0000   0.3293
  10.500   1.8897   0.02062   0.01451  -0.1767  0.0012  0.7310  -4.3844   0.0000   0.3248
  11.000   1.9162   0.02222   0.01623  -0.1729  0.0012  0.7735  -4.7970   0.0000   0.3206
  14.500   2.0353   0.04211   0.03695  -0.1488  0.0010  1.0000  -8.0348   0.0000   0.2957
  15.000   2.0420   0.04663   0.04157  -0.1462  0.0010  1.0000  -8.4863   0.0000   0.2929
  15.500   2.0472   0.05163   0.04668  -0.1439  0.0010  1.0000  -8.9211   0.0000   0.2904
  16.000   2.0497   0.05718   0.05235  -0.1420  0.0009  1.0000  -9.3445   0.0000   0.2881
  16.500   2.0344   0.06522   0.06066  -0.1401  0.0010  1.0000  -9.4705   0.0000   0.2863
  17.000   2.0305   0.07204   0.06762  -0.1391  0.0009  1.0000  -9.8404   0.0000   0.2846
  17.500   2.0267   0.07891   0.07462  -0.1387  0.0009  1.0000  -10.2436   0.0000   0.2831
  18.000   2.0161   0.08674   0.08258  -0.1387  0.0009  1.0000  -10.5908   0.0000   0.2821
  18.500   2.0049   0.09510   0.09108  -0.1394  0.0009  1.0000  -10.9321   0.0000   0.2814
  19.000   1.9920   0.10388   0.10001  -0.1407  0.0009  1.0000  -11.2533   0.0000   0.2810
  19.500   1.9759   0.11330   0.10958  -0.1427  0.0009  1.0000  -11.5300   0.0000   0.2811
  20.000   1.9724   0.12050   0.11689  -0.1443  0.0008  1.0000  -11.9529   0.0000   0.2806


