xflr5 v6.59

 Calculated polar for: WORTMANN FX 63-137 AIRFOIL

 1 1 Reynolds number fixed          Mach number fixed         

 xtrf =   1.000 (top)        1.000 (bottom)
 Mach =   0.000     Re =     3.900 e 6     Ncrit =   9.000

  alpha     CL        CD       CDp       Cm    Top Xtr Bot Xtr   Cpmin    Chinge    XCp    
 ------- -------- --------- --------- -------- ------- ------- -------- --------- ---------
 -16.100  -0.1955   0.14811   0.14586  -0.0904  0.7375  0.0027  -3.4123   0.0000   0.0000   0.0000  -0.2764
 -16.000  -0.1926   0.14696   0.14469  -0.0910  0.7349  0.0028  -3.4066   0.0000   0.0000   0.0000  -0.2867
 -15.900  -0.1894   0.14587   0.14360  -0.0915  0.7322  0.0029  -3.3863   0.0000   0.0000   0.0000  -0.2982
 -15.800  -0.1861   0.14479   0.14250  -0.0921  0.7290  0.0031  -3.3595   0.0000   0.0000   0.0000  -0.3105
 -15.700  -0.1827   0.14371   0.14141  -0.0927  0.7260  0.0032  -3.3299   0.0000   0.0000   0.0000  -0.3238
 -15.600  -0.1792   0.14262   0.14031  -0.0932  0.7231  0.0033  -3.2990   0.0000   0.0000   0.0000  -0.3376
 -15.500  -0.1757   0.14153   0.13922  -0.0938  0.7210  0.0034  -3.2675   0.0000   0.0000   0.0000  -0.3521
 -15.400  -0.1722   0.14044   0.13812  -0.0944  0.7203  0.0035  -3.2359   0.0000   0.0000   0.0000  -0.3672
 -15.300  -0.1687   0.13934   0.13703  -0.0950  0.7196  0.0035  -3.2044   0.0000   0.0000   0.0000  -0.3830
 -15.200  -0.1652   0.13824   0.13593  -0.0955  0.7188  0.0036  -3.1734   0.0000   0.0000   0.0000  -0.3993
 -15.100  -0.1619   0.13711   0.13478  -0.0961  0.7174  0.0037  -3.1467   0.0000   0.0000   0.0000  -0.4158
 -15.000  -0.1585   0.13604   0.13369  -0.0966  0.7116  0.0037  -3.1159   0.0000   0.0000   0.0000  -0.4328
 -14.900  -0.1555   0.13505   0.13263  -0.0970  0.6919  0.0038  -3.0860   0.0000   0.0000   0.0000  -0.4480
 -14.800  -0.1522   0.13400   0.13153  -0.0975  0.6832  0.0039  -3.0557   0.0000   0.0000   0.0000  -0.4656
 -14.700  -0.1491   0.13296   0.13046  -0.0980  0.6736  0.0039  -3.0258   0.0000   0.0000   0.0000  -0.4833
 -14.600  -0.1459   0.13192   0.12937  -0.0985  0.6629  0.0040  -2.9959   0.0000   0.0000   0.0000  -0.5021
 -14.500  -0.1425   0.13084   0.12828  -0.0990  0.6589  0.0040  -2.9658   0.0000   0.0000   0.0000  -0.5233
 -14.400  -0.1391   0.12975   0.12718  -0.0995  0.6553  0.0041  -2.9358   0.0000   0.0000   0.0000  -0.5453
 -14.300  -0.1359   0.12871   0.12611  -0.1000  0.6454  0.0041  -2.9065   0.0000   0.0000   0.0000  -0.5666
 -14.200  -0.1331   0.12776   0.12506  -0.1003  0.6228  0.0041  -2.8782   0.0000   0.0000   0.0000  -0.5853
 -14.100  -0.1301   0.12674   0.12400  -0.1007  0.6127  0.0042  -2.8493   0.0000   0.0000   0.0000  -0.6076
 -14.000  -0.1269   0.12571   0.12293  -0.1012  0.6032  0.0042  -2.8203   0.0000   0.0000   0.0000  -0.6316
 -13.900  -0.1236   0.12464   0.12185  -0.1017  0.5970  0.0042  -2.7909   0.0000   0.0000   0.0000  -0.6588
 -13.800  -0.1202   0.12356   0.12076  -0.1022  0.5950  0.0043  -2.7613   0.0000   0.0000   0.0000  -0.6883
 -13.700  -0.1168   0.12249   0.11968  -0.1027  0.5928  0.0043  -2.7316   0.0000   0.0000   0.0000  -0.7193
  -8.700  -0.1046   0.00905   0.00350  -0.1975  0.4686  0.0097  -5.3562   0.0000   0.0000   0.0000  -1.7080
  -8.600  -0.0931   0.00909   0.00342  -0.1975  0.4663  0.0095  -5.2473   0.0000   0.0000   0.0000  -1.9475
  -8.300  -0.0595   0.00932   0.00341  -0.1971  0.4620  0.0094  -4.9238   0.0000   0.0000   0.0000  -3.1797
  -8.200  -0.0465   0.00902   0.00322  -0.1979  0.4416  0.0064  -4.8173   0.0000   0.0000   0.0000  -4.1482
  -8.100  -0.0349   0.00900   0.00315  -0.1980  0.4312  0.0063  -4.7128   0.0000   0.0000   0.0000  -5.6095
  -8.000  -0.0231   0.00896   0.00308  -0.1982  0.4258  0.0063  -4.6081   0.0000   0.0000   0.0000  -8.6001
  -7.900  -0.0114   0.00894   0.00302  -0.1983  0.4204  0.0063  -4.5047   0.0000   0.0000   0.0000  -17.6893
  -7.800   0.0003   0.00891   0.00296  -0.1984  0.4149  0.0062  -4.4020   0.0000   0.0000   0.0000  667.6489
  -7.700   0.0122   0.00888   0.00291  -0.1986  0.4091  0.0062  -4.3056   0.0000   0.0000   0.0000  17.0937
  -7.600   0.0241   0.00884   0.00285  -0.1988  0.4035  0.0062  -4.2289   0.0000   0.0000   0.0000   8.7425
  -7.500   0.0362   0.00880   0.00279  -0.1989  0.4016  0.0061  -4.1523   0.0000   0.0000   0.0000   5.9122
  -7.400   0.0483   0.00875   0.00274  -0.1991  0.4005  0.0061  -4.0762   0.0000   0.0000   0.0000   4.4981
  -7.300   0.0603   0.00871   0.00269  -0.1993  0.3990  0.0060  -4.0006   0.0000   0.0000   0.0000   3.6513
  -7.200   0.0724   0.00867   0.00264  -0.1995  0.3976  0.0060  -3.9253   0.0000   0.0000   0.0000   3.0865
  -7.100   0.0845   0.00863   0.00259  -0.1997  0.3971  0.0060  -3.8503   0.0000   0.0000   0.0000   2.6816
  -7.000   0.0949   0.00872   0.00260  -0.1996  0.3727  0.0060  -3.7814   0.0000   0.0000   0.0000   2.4121
  -6.900   0.1069   0.00869   0.00254  -0.1997  0.3700  0.0059  -3.7073   0.0000   0.0000   0.0000   2.1707
  -6.800   0.1187   0.00868   0.00250  -0.1999  0.3661  0.0059  -3.6345   0.0000   0.0000   0.0000   1.9798
  -6.700   0.1305   0.00867   0.00247  -0.2000  0.3620  0.0059  -3.5623   0.0000   0.0000   0.0000   1.8241
  -6.600   0.1422   0.00866   0.00244  -0.2001  0.3579  0.0058  -3.4905   0.0000   0.0000   0.0000   1.6947
  -6.500   0.1538   0.00866   0.00242  -0.2002  0.3537  0.0058  -3.4189   0.0000   0.0000   0.0000   1.5852
  -6.400   0.1656   0.00865   0.00239  -0.2003  0.3492  0.0058  -3.3472   0.0000   0.0000   0.0000   1.4907
  -6.300   0.1774   0.00864   0.00237  -0.2004  0.3442  0.0058  -3.2754   0.0000   0.0000   0.0000   1.4083
  -6.200   0.1893   0.00862   0.00234  -0.2006  0.3401  0.0058  -3.2035   0.0000   0.0000   0.0000   1.3358
  -6.100   0.2012   0.00860   0.00232  -0.2007  0.3387  0.0058  -3.1315   0.0000   0.0000   0.0000   1.2716
  -6.000   0.2132   0.00858   0.00229  -0.2009  0.3379  0.0058  -3.0597   0.0000   0.0000   0.0000   1.2147
  -5.900   0.2251   0.00856   0.00227  -0.2010  0.3370  0.0058  -2.9878   0.0000   0.0000   0.0000   1.1638
  -5.800   0.2370   0.00854   0.00225  -0.2012  0.3358  0.0057  -2.9159   0.0000   0.0000   0.0000   1.1181
  -5.700   0.2489   0.00853   0.00224  -0.2013  0.3345  0.0057  -2.8435   0.0000   0.0000   0.0000   1.0769
  -5.600   0.2608   0.00851   0.00222  -0.2014  0.3342  0.0057  -2.7692   0.0000   0.0000   0.0000   1.0393
  -5.500   0.2711   0.00862   0.00227  -0.2013  0.3131  0.0056  -2.6948   0.0000   0.0000   0.0000   1.0084
  -5.300   0.2929   0.00875   0.00243  -0.2012  0.3018  0.0056  -2.4755   0.0000   0.0000   0.0000   0.9510
  -5.200   0.3045   0.00876   0.00242  -0.2013  0.2978  0.0056  -2.4126   0.0000   0.0000   0.0000   0.9243
  -5.100   0.3161   0.00877   0.00240  -0.2014  0.2938  0.0055  -2.3516   0.0000   0.0000   0.0000   0.8995
  -5.000   0.3278   0.00877   0.00238  -0.2015  0.2896  0.0055  -2.2922   0.0000   0.0000   0.0000   0.8764
  -4.900   0.3396   0.00876   0.00236  -0.2016  0.2852  0.0055  -2.2340   0.0000   0.0000   0.0000   0.8547
  -4.800   0.3515   0.00875   0.00234  -0.2017  0.2807  0.0054  -2.1772   0.0000   0.0000   0.0000   0.8344
  -4.700   0.3635   0.00873   0.00231  -0.2019  0.2786  0.0054  -2.1216   0.0000   0.0000   0.0000   0.8154
  -4.600   0.3755   0.00871   0.00228  -0.2021  0.2779  0.0054  -2.0674   0.0000   0.0000   0.0000   0.7975
  -4.500   0.3875   0.00868   0.00225  -0.2022  0.2771  0.0053  -2.0148   0.0000   0.0000   0.0000   0.7807
  -4.400   0.3995   0.00866   0.00222  -0.2024  0.2761  0.0053  -1.9645   0.0000   0.0000   0.0000   0.7650
  -4.300   0.4115   0.00865   0.00219  -0.2025  0.2747  0.0053  -1.9148   0.0000   0.0000   0.0000   0.7501
  -4.200   0.4236   0.00862   0.00216  -0.2027  0.2744  0.0053  -1.8667   0.0000   0.0000   0.0000   0.7361
  -4.100   0.4347   0.00868   0.00216  -0.2027  0.2610  0.0053  -1.8227   0.0000   0.0000   0.0000   0.7235
  -4.000   0.4462   0.00871   0.00212  -0.2028  0.2488  0.0053  -1.8067   0.0000   0.0000   0.0000   0.7112
  -3.900   0.4582   0.00869   0.00208  -0.2029  0.2458  0.0053  -1.7843   0.0000   0.0000   0.0000   0.6992
  -3.800   0.4700   0.00870   0.00207  -0.2031  0.2428  0.0053  -1.7463   0.0000   0.0000   0.0000   0.6880
  -3.700   0.4817   0.00871   0.00206  -0.2031  0.2398  0.0053  -1.7077   0.0000   0.0000   0.0000   0.6774
  -3.600   0.4944   0.00865   0.00203  -0.2035  0.2368  0.0135  -1.7408   0.0000   0.0000   0.0000   0.6669
  -3.500   0.5059   0.00866   0.00204  -0.2036  0.2338  0.0141  -1.6770   0.0000   0.0000   0.0000   0.6574
  -3.400   0.5176   0.00867   0.00204  -0.2037  0.2307  0.0145  -1.6128   0.0000   0.0000   0.0000   0.6482
  -3.300   0.5292   0.00868   0.00205  -0.2037  0.2272  0.0148  -1.5478   0.0000   0.0000   0.0000   0.6395
  -3.200   0.5408   0.00870   0.00205  -0.2038  0.2240  0.0151  -1.4814   0.0000   0.0000   0.0000   0.6311
  -3.100   0.5524   0.00871   0.00206  -0.2039  0.2221  0.0154  -1.4133   0.0000   0.0000   0.0000   0.6230
  -3.000   0.5640   0.00872   0.00208  -0.2040  0.2217  0.0156  -1.3442   0.0000   0.0000   0.0000   0.6153
  -2.900   0.5756   0.00873   0.00209  -0.2041  0.2212  0.0159  -1.2756   0.0000   0.0000   0.0000   0.6080
  -2.800   0.5872   0.00874   0.00210  -0.2042  0.2207  0.0161  -1.2096   0.0000   0.0000   0.0000   0.6009
  -2.700   0.5988   0.00874   0.00211  -0.2043  0.2201  0.0162  -1.1478   0.0000   0.0000   0.0000   0.5940
  -2.600   0.6105   0.00875   0.00211  -0.2044  0.2194  0.0163  -1.0913   0.0000   0.0000   0.0000   0.5874
  -2.500   0.6223   0.00875   0.00211  -0.2045  0.2184  0.0163  -1.0421   0.0000   0.0000   0.0000   0.5811
  -2.400   0.6343   0.00873   0.00208  -0.2047  0.2177  0.0162  -1.0104   0.0000   0.0000   0.0000   0.5749
  -2.300   0.6431   0.00901   0.00216  -0.2042  0.1750  0.0157  -1.0060   0.0000   0.0000   0.0000   0.5696
  -2.200   0.6546   0.00903   0.00217  -0.2043  0.1711  0.0159  -0.9497   0.0000   0.0000   0.0000   0.5639
  -2.100   0.6662   0.00904   0.00218  -0.2044  0.1701  0.0160  -0.9254   0.0000   0.0000   0.0000   0.5584
  -2.000   0.6778   0.00905   0.00219  -0.2045  0.1698  0.0162  -0.9342   0.0000   0.0000   0.0000   0.5531
  -1.900   0.6894   0.00906   0.00220  -0.2046  0.1694  0.0163  -0.9429   0.0000   0.0000   0.0000   0.5480
  -1.800   0.7011   0.00907   0.00220  -0.2046  0.1690  0.0164  -0.9517   0.0000   0.0000   0.0000   0.5430
  -1.700   0.7127   0.00908   0.00221  -0.2047  0.1686  0.0165  -0.9605   0.0000   0.0000   0.0000   0.5382
  -1.600   0.7243   0.00909   0.00222  -0.2048  0.1681  0.0166  -0.9705   0.0000   0.0000   0.0000   0.5335
  -1.500   0.7359   0.00911   0.00223  -0.2049  0.1676  0.0166  -0.9808   0.0000   0.0000   0.0000   0.5290
  -1.400   0.7475   0.00912   0.00224  -0.2050  0.1668  0.0167  -0.9912   0.0000   0.0000   0.0000   0.5246
  -1.300   0.7591   0.00914   0.00225  -0.2051  0.1660  0.0167  -1.0016   0.0000   0.0000   0.0000   0.5204
  -1.200   0.7707   0.00915   0.00226  -0.2052  0.1657  0.0168  -1.0119   0.0000   0.0000   0.0000   0.5162
  -1.100   0.7807   0.00930   0.00234  -0.2050  0.1472  0.0168  -1.0220   0.0000   0.0000   0.0000   0.5124
  -1.000   0.7921   0.00933   0.00236  -0.2050  0.1450  0.0169  -1.0324   0.0000   0.0000   0.0000   0.5085
  -0.900   0.8035   0.00936   0.00238  -0.2051  0.1434  0.0169  -1.0427   0.0000   0.0000   0.0000   0.5047
  -0.800   0.8149   0.00939   0.00240  -0.2051  0.1419  0.0169  -1.0531   0.0000   0.0000   0.0000   0.5011
  -0.700   0.8262   0.00942   0.00242  -0.2051  0.1401  0.0169  -1.0634   0.0000   0.0000   0.0000   0.4975
  -0.600   0.8374   0.00947   0.00244  -0.2051  0.1370  0.0170  -1.0736   0.0000   0.0000   0.0000   0.4940
  -0.100   0.8942   0.00962   0.00253  -0.2054  0.1241  0.0187  -1.1253   0.0000   0.0000   0.0000   0.4780
   0.000   0.9056   0.00964   0.00255  -0.2054  0.1239  0.0187  -1.1357   0.0000   0.0000   0.0000   0.4750
   0.100   0.9170   0.00966   0.00258  -0.2055  0.1236  0.0186  -1.1461   0.0000   0.0000   0.0000   0.4721
   0.200   0.9284   0.00969   0.00260  -0.2055  0.1233  0.0185  -1.1565   0.0000   0.0000   0.0000   0.4692
   0.300   0.9398   0.00971   0.00263  -0.2055  0.1230  0.0183  -1.1669   0.0000   0.0000   0.0000   0.4664
   0.400   0.9511   0.00974   0.00265  -0.2056  0.1227  0.0181  -1.1774   0.0000   0.0000   0.0000   0.4637
   0.500   0.9625   0.00977   0.00268  -0.2056  0.1223  0.0179  -1.1878   0.0000   0.0000   0.0000   0.4610
   0.600   0.9738   0.00980   0.00271  -0.2056  0.1218  0.0178  -1.1982   0.0000   0.0000   0.0000   0.4585
   0.700   0.9850   0.00983   0.00274  -0.2057  0.1212  0.0177  -1.2100   0.0000   0.0000   0.0000   0.4559
   0.800   0.9963   0.00987   0.00278  -0.2057  0.1203  0.0176  -1.2224   0.0000   0.0000   0.0000   0.4534
   0.900   1.0075   0.00990   0.00282  -0.2057  0.1196  0.0177  -1.2347   0.0000   0.0000   0.0000   0.4510
   1.000   1.0177   0.01002   0.00291  -0.2055  0.1093  0.0178  -1.2467   0.0000   0.0000   0.0000   0.4486
   1.100   1.0281   0.01012   0.00298  -0.2054  0.1027  0.0181  -1.2588   0.0000   0.0000   0.0000   0.4463
   1.200   1.0391   0.01017   0.00302  -0.2053  0.1016  0.0221  -1.2711   0.0000   0.0000   0.0000   0.4440
   1.300   1.0500   0.01023   0.00307  -0.2053  0.1005  0.0252  -1.2837   0.0000   0.0000   0.0000   0.4418
   1.400   1.0611   0.01027   0.00314  -0.2053  0.0993  0.0268  -1.2988   0.0000   0.0000   0.0000   0.4396
   1.500   1.0723   0.01031   0.00317  -0.2053  0.0982  0.0350  -1.3141   0.0000   0.0000   0.0000   0.4375
   1.600   1.0833   0.01036   0.00321  -0.2053  0.0970  0.0361  -1.3292   0.0000   0.0000   0.0000   0.4354
   1.700   1.0943   0.01041   0.00325  -0.2053  0.0958  0.0368  -1.3442   0.0000   0.0000   0.0000   0.4333
   1.800   1.1053   0.01046   0.00329  -0.2053  0.0946  0.0373  -1.3592   0.0000   0.0000   0.0000   0.4313
   1.900   1.1163   0.01050   0.00333  -0.2052  0.0932  0.0377  -1.3742   0.0000   0.0000   0.0000   0.4293
   2.000   1.1273   0.01055   0.00337  -0.2052  0.0918  0.0381  -1.3893   0.0000   0.0000   0.0000   0.4274
   2.100   1.1383   0.01059   0.00342  -0.2052  0.0902  0.0384  -1.4045   0.0000   0.0000   0.0000   0.4254
   2.200   1.1493   0.01064   0.00346  -0.2052  0.0888  0.0404  -1.4196   0.0000   0.0000   0.0000   0.4236
   2.300   1.1603   0.01068   0.00351  -0.2052  0.0876  0.0475  -1.4348   0.0000   0.0000   0.0000   0.4217
   2.400   1.1712   0.01073   0.00357  -0.2051  0.0844  0.0497  -1.4500   0.0000   0.0000   0.0000   0.4199
   2.500   1.1820   0.01079   0.00364  -0.2051  0.0834  0.0519  -1.4649   0.0000   0.0000   0.0000   0.4181
   2.600   1.1932   0.01083   0.00369  -0.2051  0.0814  0.0654  -1.4802   0.0000   0.0000   0.0000   0.4164
   2.700   1.2019   0.01107   0.00386  -0.2047  0.0659  0.0689  -1.5043   0.0000   0.0000   0.0000   0.4146
   2.800   1.2120   0.01118   0.00395  -0.2045  0.0619  0.0796  -1.5234   0.0000   0.0000   0.0000   0.4129
   2.900   1.2226   0.01125   0.00402  -0.2044  0.0593  0.0843  -1.5421   0.0000   0.0000   0.0000   0.4113
   3.000   1.2337   0.01130   0.00408  -0.2045  0.0567  0.1003  -1.5610   0.0000   0.0000   0.0000   0.4096
   3.100   1.2444   0.01136   0.00414  -0.2044  0.0544  0.1022  -1.5818   0.0000   0.0000   0.0000   0.4080
   3.200   1.2551   0.01142   0.00420  -0.2043  0.0526  0.1037  -1.6039   0.0000   0.0000   0.0000   0.4064
   3.300   1.2658   0.01148   0.00425  -0.2043  0.0516  0.1102  -1.6266   0.0000   0.0000   0.0000   0.4048
   3.400   1.2766   0.01153   0.00431  -0.2042  0.0513  0.1166  -1.6498   0.0000   0.0000   0.0000   0.4033
   3.500   1.2875   0.01158   0.00438  -0.2042  0.0510  0.1228  -1.6732   0.0000   0.0000   0.0000   0.4018
   3.600   1.2987   0.01161   0.00444  -0.2043  0.0506  0.1437  -1.6972   0.0000   0.0000   0.0000   0.4003
   3.700   1.3093   0.01168   0.00450  -0.2042  0.0501  0.1458  -1.7207   0.0000   0.0000   0.0000   0.3988
   3.800   1.3198   0.01174   0.00457  -0.2041  0.0495  0.1494  -1.7445   0.0000   0.0000   0.0000   0.3974
   3.900   1.3307   0.01178   0.00462  -0.2041  0.0510  0.1485  -1.7688   0.0000   0.0000   0.0000   0.3959
   4.000   1.3415   0.01183   0.00468  -0.2040  0.0508  0.1606  -1.8029   0.0000   0.0000   0.0000   0.3945
   4.100   1.3526   0.01187   0.00475  -0.2041  0.0506  0.1760  -1.8376   0.0000   0.0000   0.0000   0.3932
   4.200   1.3636   0.01192   0.00482  -0.2041  0.0502  0.1942  -1.8724   0.0000   0.0000   0.0000   0.3918
   4.300   1.3741   0.01198   0.00489  -0.2040  0.0493  0.2042  -1.9070   0.0000   0.0000   0.0000   0.3905
   4.400   1.3847   0.01206   0.00499  -0.2040  0.0476  0.2203  -1.9421   0.0000   0.0000   0.0000   0.3891
   4.500   1.3954   0.01214   0.00510  -0.2040  0.0451  0.2480  -1.9774   0.0000   0.0000   0.0000   0.3879
   4.600   1.4055   0.01225   0.00521  -0.2038  0.0425  0.2615  -2.0116   0.0000   0.0000   0.0000   0.3866
   4.700   1.4167   0.01230   0.00531  -0.2040  0.0399  0.2952  -2.0477   0.0000   0.0000   0.0000   0.3854
   4.800   1.4273   0.01236   0.00539  -0.2039  0.0383  0.3088  -2.0829   0.0000   0.0000   0.0000   0.3841
   4.900   1.4383   0.01241   0.00547  -0.2040  0.0381  0.3318  -2.1194   0.0000   0.0000   0.0000   0.3829
   5.000   1.4498   0.01244   0.00556  -0.2042  0.0379  0.3660  -2.1569   0.0000   0.0000   0.0000   0.3817
   5.100   1.4601   0.01251   0.00564  -0.2040  0.0376  0.3763  -2.1929   0.0000   0.0000   0.0000   0.3805
   5.300   1.4824   0.01261   0.00583  -0.2042  0.0371  0.4340  -2.2680   0.0000   0.0000   0.0000   0.3782
   5.400   1.4935   0.01265   0.00594  -0.2044  0.0367  0.4680  -2.3061   0.0000   0.0000   0.0000   0.3771
   5.500   1.5043   0.01271   0.00604  -0.2044  0.0362  0.4948  -2.3440   0.0000   0.0000   0.0000   0.3760
   5.600   1.5140   0.01281   0.00614  -0.2041  0.0353  0.4972  -2.3807   0.0000   0.0000   0.0000   0.3748
   5.700   1.5212   0.01310   0.00636  -0.2034  0.0268  0.4987  -2.4179   0.0000   0.0000   0.0000   0.3735
   5.800   1.5298   0.01328   0.00651  -0.2030  0.0234  0.5000  -2.4466   0.0000   0.0000   0.0000   0.3723
   5.900   1.5385   0.01345   0.00667  -0.2026  0.0201  0.5064  -2.4711   0.0000   0.0000   0.0000   0.3712
   6.000   1.5427   0.01395   0.00714  -0.2013  0.0044  0.5137  -2.5024   0.0000   0.0000   0.0000   0.3698
   6.100   1.5521   0.01406   0.00726  -0.2010  0.0041  0.5181  -2.5391   0.0000   0.0000   0.0000   0.3687
   6.200   1.5613   0.01418   0.00738  -0.2007  0.0038  0.5221  -2.5755   0.0000   0.0000   0.0000   0.3676
   6.300   1.5705   0.01430   0.00750  -0.2004  0.0037  0.5254  -2.6113   0.0000   0.0000   0.0000   0.3664
   6.400   1.5797   0.01442   0.00762  -0.2000  0.0035  0.5281  -2.6472   0.0000   0.0000   0.0000   0.3653
   6.500   1.5887   0.01453   0.00774  -0.1997  0.0033  0.5305  -2.6831   0.0000   0.0000   0.0000   0.3642
   6.600   1.5978   0.01465   0.00785  -0.1993  0.0032  0.5337  -2.7190   0.0000   0.0000   0.0000   0.3631
   6.700   1.6071   0.01476   0.00798  -0.1991  0.0030  0.5455  -2.7553   0.0000   0.0000   0.0000   0.3620
   6.800   1.6163   0.01487   0.00811  -0.1988  0.0028  0.5549  -2.7917   0.0000   0.0000   0.0000   0.3610
   6.900   1.6253   0.01499   0.00823  -0.1984  0.0026  0.5604  -2.8276   0.0000   0.0000   0.0000   0.3599
   7.000   1.6340   0.01511   0.00836  -0.1980  0.0025  0.5627  -2.8632   0.0000   0.0000   0.0000   0.3588
   7.100   1.6426   0.01524   0.00848  -0.1975  0.0023  0.5640  -2.8989   0.0000   0.0000   0.0000   0.3578
   7.200   1.6509   0.01536   0.00861  -0.1971  0.0021  0.5651  -2.9344   0.0000   0.0000   0.0000   0.3567
   7.300   1.6588   0.01549   0.00874  -0.1965  0.0020  0.5688  -2.9691   0.0000   0.0000   0.0000   0.3556
   7.400   1.6658   0.01562   0.00887  -0.1957  0.0018  0.5752  -3.0026   0.0000   0.0000   0.0000   0.3545
   7.500   1.6731   0.01574   0.00901  -0.1950  0.0017  0.5817  -3.0364   0.0000   0.0000   0.0000   0.3534
   7.600   1.6804   0.01587   0.00916  -0.1944  0.0016  0.5880  -3.0706   0.0000   0.0000   0.0000   0.3523
   7.700   1.6877   0.01601   0.00930  -0.1937  0.0014  0.5936  -3.1047   0.0000   0.0000   0.0000   0.3513
   7.900   1.7022   0.01629   0.00961  -0.1924  0.0014  0.6110  -3.1733   0.0000   0.0000   0.0000   0.3492
   8.000   1.7097   0.01643   0.00977  -0.1917  0.0013  0.6205  -3.2081   0.0000   0.0000   0.0000   0.3481
   8.100   1.7168   0.01659   0.00993  -0.1911  0.0013  0.6262  -3.2425   0.0000   0.0000   0.0000   0.3471
   8.200   1.7236   0.01675   0.01011  -0.1903  0.0013  0.6277  -3.2765   0.0000   0.0000   0.0000   0.3460
   8.300   1.7304   0.01691   0.01028  -0.1896  0.0013  0.6333  -3.3105   0.0000   0.0000   0.0000   0.3450
   8.400   1.7376   0.01707   0.01046  -0.1889  0.0013  0.6440  -3.3453   0.0000   0.0000   0.0000   0.3440
   8.500   1.7446   0.01724   0.01065  -0.1883  0.0013  0.6520  -3.3800   0.0000   0.0000   0.0000   0.3430
   8.600   1.7514   0.01741   0.01084  -0.1875  0.0013  0.6581  -3.4142   0.0000   0.0000   0.0000   0.3420
   8.700   1.7581   0.01759   0.01103  -0.1868  0.0013  0.6653  -3.4483   0.0000   0.0000   0.0000   0.3410
   8.800   1.7650   0.01778   0.01124  -0.1862  0.0013  0.6752  -3.4831   0.0000   0.0000   0.0000   0.3400
   8.900   1.7718   0.01797   0.01144  -0.1855  0.0013  0.6816  -3.5177   0.0000   0.0000   0.0000   0.3391
   9.000   1.7784   0.01816   0.01165  -0.1848  0.0013  0.6860  -3.5521   0.0000   0.0000   0.0000   0.3381
   9.100   1.7847   0.01837   0.01187  -0.1840  0.0013  0.6891  -3.5859   0.0000   0.0000   0.0000   0.3371
   9.200   1.7908   0.01859   0.01209  -0.1832  0.0013  0.6912  -3.6196   0.0000   0.0000   0.0000   0.3361
   9.300   1.7971   0.01880   0.01232  -0.1825  0.0013  0.6971  -3.6600   0.0000   0.0000   0.0000   0.3352
   9.400   1.8035   0.01902   0.01255  -0.1817  0.0013  0.7032  -3.7051   0.0000   0.0000   0.0000   0.3342
   9.500   1.8095   0.01926   0.01280  -0.1810  0.0013  0.7085  -3.7496   0.0000   0.0000   0.0000   0.3333
   9.600   1.8151   0.01951   0.01307  -0.1801  0.0013  0.7134  -3.7933   0.0000   0.0000   0.0000   0.3323
   9.700   1.8209   0.01976   0.01334  -0.1793  0.0012  0.7179  -3.8373   0.0000   0.0000   0.0000   0.3314
   9.900   1.8326   0.02029   0.01391  -0.1778  0.0012  0.7324  -3.9261   0.0000   0.0000   0.0000   0.3296
  10.000   1.8381   0.02057   0.01422  -0.1771  0.0012  0.7408  -3.9696   0.0000   0.0000   0.0000   0.3286
  10.100   1.8436   0.02087   0.01453  -0.1763  0.0012  0.7474  -4.0129   0.0000   0.0000   0.0000   0.3277
  10.200   1.8492   0.02116   0.01485  -0.1755  0.0012  0.7549  -4.0567   0.0000   0.0000   0.0000   0.3268
  10.300   1.8549   0.02147   0.01519  -0.1748  0.0012  0.7651  -4.1004   0.0000   0.0000   0.0000   0.3260
  10.400   1.8600   0.02180   0.01555  -0.1740  0.0012  0.7738  -4.1427   0.0000   0.0000   0.0000   0.3251
  10.500   1.8652   0.02214   0.01593  -0.1732  0.0012  0.7843  -4.1845   0.0000   0.0000   0.0000   0.3242
  10.600   1.8707   0.02247   0.01630  -0.1725  0.0012  0.7969  -4.2302   0.0000   0.0000   0.0000   0.3234
  10.700   1.8758   0.02283   0.01669  -0.1718  0.0012  0.8074  -4.2998   0.0000   0.0000   0.0000   0.3225
  10.800   1.8807   0.02321   0.01712  -0.1710  0.0012  0.8213  -4.3675   0.0000   0.0000   0.0000   0.3217
  10.900   1.8856   0.02360   0.01756  -0.1703  0.0012  0.8355  -4.4336   0.0000   0.0000   0.0000   0.3208
  11.200   1.8959   0.02479   0.01905  -0.1674  0.0013  1.0000  -4.5931   0.0000   0.0000   0.0000   0.3182
