XFLR5 v6.02 Beta

 Calculated polar for: WORTMANN FX 63-137

 1 1 Reynolds number fixed          Mach number fixed         

 xtrf =   1.000 (top)        1.000 (bottom)
 Mach =   0.000     Re =     8.000 e 6     Ncrit =   9.000

  alpha     CL        CD       CDp       CM    Top Xtr Bot Xtr   Cpmin    Chinge    XCp    
 ------- -------- --------- --------- -------- ------- ------- -------- --------- ---------
 -17.500  -0.8613   0.04606   0.04334  -0.1496  0.7986  0.0037  -17.6557   0.0000   0.0464
 -17.000  -0.8898   0.03537   0.03239  -0.1595  0.7774  0.0038  -17.8891   0.0000   0.0431
 -16.500  -0.8906   0.02900   0.02584  -0.1653  0.7552  0.0038  -17.6241   0.0000   0.0383
 -16.000  -0.8810   0.02431   0.02099  -0.1692  0.7368  0.0038  -17.1763   0.0000   0.0332
 -15.500  -0.8585   0.02066   0.01721  -0.1732  0.7189  0.0039  -16.5625   0.0000   0.0246
 -15.000  -0.8152   0.01775   0.01409  -0.1794  0.6783  0.0039  -15.7299   0.0000   0.0069
 -14.500  -0.7606   0.01574   0.01195  -0.1847  0.6603  0.0040  -14.7739   0.0000  -0.0158
 -14.000  -0.7062   0.01444   0.01057  -0.1873  0.6578  0.0041  -13.8204   0.0000  -0.0380
 -13.500  -0.6549   0.01356   0.00943  -0.1885  0.5959  0.0041  -12.9194   0.0000  -0.0606
 -13.000  -0.6023   0.01288   0.00850  -0.1894  0.5304  0.0042  -12.0242   0.0000  -0.0876
 -12.500  -0.5464   0.01218   0.00765  -0.1907  0.4980  0.0042  -11.1274   0.0000  -0.1226
 -12.000  -0.4894   0.01157   0.00691  -0.1919  0.4737  0.0043  -10.2490   0.0000  -0.1665
 -11.500  -0.4309   0.01107   0.00635  -0.1931  0.4651  0.0044  -9.3690   0.0000  -0.2237
  -3.500   0.5170   0.00803   0.00191  -0.2062  0.1671  0.0070  -1.6618   0.0000   0.6537
  -3.000   0.5752   0.00811   0.00194  -0.2067  0.1440  0.0142  -1.3974   0.0000   0.6129
  -2.500   0.6328   0.00823   0.00198  -0.2070  0.1246  0.0149  -1.1281   0.0000   0.5795
  -2.000   0.6912   0.00828   0.00201  -0.2074  0.1229  0.0149  -0.9427   0.0000   0.5515
  -1.500   0.7493   0.00834   0.00206  -0.2079  0.1216  0.0155  -0.9914   0.0000   0.5279
  -1.000   0.8057   0.00854   0.00219  -0.2080  0.1017  0.0159  -1.0423   0.0000   0.5078
  -0.500   0.8626   0.00870   0.00229  -0.2082  0.0956  0.0162  -1.0938   0.0000   0.4902
   0.000   0.9198   0.00882   0.00239  -0.2084  0.0912  0.0164  -1.1459   0.0000   0.4747
   0.500   0.9767   0.00895   0.00251  -0.2086  0.0844  0.0169  -1.1983   0.0000   0.4610
   1.000   1.0335   0.00908   0.00264  -0.2088  0.0843  0.0173  -1.2602   0.0000   0.4488
   1.500   1.0899   0.00923   0.00279  -0.2090  0.0840  0.0220  -1.3332   0.0000   0.4377
   2.000   1.1462   0.00938   0.00296  -0.2091  0.0835  0.0361  -1.4086   0.0000   0.4277
   2.500   1.1976   0.00992   0.00337  -0.2083  0.0481  0.0407  -1.4913   0.0000   0.4185
   3.000   1.2519   0.01021   0.00365  -0.2081  0.0388  0.0657  -1.5949   0.0000   0.4101
   3.500   1.3061   0.01046   0.00389  -0.2079  0.0376  0.0714  -1.7107   0.0000   0.4023
   4.000   1.3600   0.01072   0.00416  -0.2076  0.0371  0.0809  -1.8398   0.0000   0.3951
   4.500   1.4110   0.01120   0.00458  -0.2068  0.0242  0.1049  -2.0099   0.0000   0.3883
   5.500   1.5112   0.01224   0.00564  -0.2051  0.0036  0.2078  -2.3600   0.0000   0.3758
   6.000   1.5666   0.01250   0.00616  -0.2055  0.0020  0.3872  -2.5509   0.0000   0.3705
   6.500   1.6169   0.01292   0.00664  -0.2048  0.0015  0.4326  -2.7380   0.0000   0.3651
   7.000   1.6653   0.01340   0.00715  -0.2037  0.0013  0.4670  -2.9266   0.0000   0.3599
   7.500   1.7124   0.01391   0.00772  -0.2023  0.0013  0.5121  -3.1169   0.0000   0.3549
   8.000   1.7567   0.01450   0.00832  -0.2004  0.0013  0.5226  -3.3059   0.0000   0.3500
   8.500   1.7945   0.01513   0.00896  -0.1972  0.0013  0.5325  -3.4861   0.0000   0.3449
   9.000   1.8283   0.01583   0.00971  -0.1934  0.0012  0.5557  -3.6663   0.0000   0.3399
   9.500   1.8620   0.01664   0.01058  -0.1897  0.0012  0.5936  -3.9039   0.0000   0.3351
  10.000   1.8947   0.01757   0.01158  -0.1860  0.0012  0.6352  -4.1673   0.0000   0.3304
  10.500   1.9251   0.01867   0.01277  -0.1822  0.0011  0.6790  -4.6406   0.0000   0.3259
  11.000   1.9530   0.01996   0.01412  -0.1781  0.0011  0.7030  -5.1187   0.0000   0.3215
  11.500   1.9797   0.02146   0.01571  -0.1743  0.0011  0.7334  -5.6047   0.0000   0.3173
  12.000   2.0045   0.02322   0.01757  -0.1705  0.0011  0.7763  -6.0889   0.0000   0.3133
  12.500   2.0263   0.02537   0.01988  -0.1668  0.0011  0.8497  -6.5419   0.0000   0.3095
  13.500   2.0700   0.02988   0.02465  -0.1603  0.0010  1.0000  -7.7147   0.0000   0.3024
  14.000   2.0862   0.03284   0.02767  -0.1570  0.0009  1.0000  -8.2333   0.0000   0.2990
  14.500   2.0997   0.03621   0.03111  -0.1538  0.0009  1.0000  -8.7466   0.0000   0.2958
  15.000   2.1130   0.03974   0.03470  -0.1509  0.0009  1.0000  -9.2720   0.0000   0.2928
  15.500   2.1208   0.04388   0.03893  -0.1481  0.0009  1.0000  -9.7629   0.0000   0.2899
  16.000   2.1271   0.04856   0.04370  -0.1457  0.0008  1.0000  -10.2555   0.0000   0.2873
  16.500   2.1311   0.05376   0.04898  -0.1436  0.0008  1.0000  -10.7409   0.0000   0.2849
  17.000   2.1324   0.05950   0.05483  -0.1419  0.0008  1.0000  -11.2114   0.0000   0.2827
  17.500   2.1337   0.06538   0.06080  -0.1407  0.0008  1.0000  -11.6904   0.0000   0.2807
  18.000   2.1360   0.07119   0.06670  -0.1397  0.0008  1.0000  -12.1851   0.0000   0.2788
  18.500   2.1300   0.07827   0.07390  -0.1392  0.0007  1.0000  -12.6092   0.0000   0.2773
  19.000   2.1193   0.08587   0.08162  -0.1390  0.0007  1.0000  -12.9974   0.0000   0.2761
  19.500   2.1072   0.09412   0.08999  -0.1396  0.0007  1.0000  -13.3664   0.0000   0.2752
  20.000   2.0963   0.10229   0.09829  -0.1406  0.0007  1.0000  -13.7442   0.0000   0.2745


