XFLR5 v6.02 Beta

 Calculated polar for: WORTMANN FX 63-137

 1 1 Reynolds number fixed          Mach number fixed         

 xtrf =   1.000 (top)        1.000 (bottom)
 Mach =   0.000     Re =     9.500 e 6     Ncrit =   9.000

  alpha     CL        CD       CDp       CM    Top Xtr Bot Xtr   Cpmin    Chinge    XCp    
 ------- -------- --------- --------- -------- ------- ------- -------- --------- ---------
 -17.000  -0.9429   0.02876   0.02550  -0.1661  0.7361  0.0036  -18.8429   0.0000   0.0474
 -16.500  -0.9313   0.02425   0.02087  -0.1699  0.7206  0.0037  -18.3486   0.0000   0.0424
 -15.500  -0.8696   0.01799   0.01430  -0.1785  0.6632  0.0038  -16.8793   0.0000   0.0214
 -14.500  -0.7628   0.01465   0.01069  -0.1867  0.6211  0.0039  -14.9230   0.0000  -0.0176
 -14.000  -0.7087   0.01365   0.00958  -0.1885  0.6026  0.0040  -13.9559   0.0000  -0.0387
 -13.500  -0.6582   0.01303   0.00864  -0.1891  0.5110  0.0040  -13.0511   0.0000  -0.0601
 -13.000  -0.6030   0.01236   0.00780  -0.1903  0.4667  0.0041  -12.1241   0.0000  -0.0886
 -12.500  -0.5449   0.01164   0.00702  -0.1918  0.4638  0.0041  -11.2007   0.0000  -0.1256
 -12.000  -0.4886   0.01114   0.00636  -0.1927  0.4209  0.0042  -10.3233   0.0000  -0.1689
 -11.500  -0.4300   0.01061   0.00577  -0.1940  0.4053  0.0043  -9.4480   0.0000  -0.2269
 -11.000  -0.3705   0.01009   0.00520  -0.1953  0.4000  0.0044  -8.6033   0.0000  -0.3048
  -4.000   0.4601   0.00793   0.00191  -0.2061  0.1471  0.0046  -1.9071   0.0000   0.7046
  -3.500   0.5188   0.00795   0.00190  -0.2066  0.1407  0.0063  -1.6663   0.0000   0.6532
  -3.000   0.5778   0.00796   0.00189  -0.2073  0.1323  0.0135  -1.3977   0.0000   0.6123
  -2.500   0.6363   0.00801   0.00192  -0.2077  0.1232  0.0147  -1.1262   0.0000   0.5789
  -2.000   0.6945   0.00806   0.00196  -0.2082  0.1211  0.0147  -0.9448   0.0000   0.5511
  -1.500   0.7514   0.00824   0.00206  -0.2083  0.1015  0.0154  -0.9928   0.0000   0.5278
  -1.000   0.8087   0.00837   0.00214  -0.2086  0.0960  0.0158  -1.0443   0.0000   0.5076
  -0.500   0.8661   0.00848   0.00223  -0.2089  0.0910  0.0160  -1.0963   0.0000   0.4901
   0.000   0.9234   0.00859   0.00233  -0.2092  0.0858  0.0163  -1.1486   0.0000   0.4747
   0.500   0.9805   0.00872   0.00244  -0.2094  0.0839  0.0167  -1.2011   0.0000   0.4610
   1.000   1.0374   0.00884   0.00256  -0.2096  0.0841  0.0173  -1.2634   0.0000   0.4488
   1.500   1.0939   0.00898   0.00271  -0.2098  0.0837  0.0208  -1.3370   0.0000   0.4378
   2.000   1.1503   0.00913   0.00288  -0.2100  0.0830  0.0355  -1.4125   0.0000   0.4278
   2.500   1.2012   0.00972   0.00331  -0.2091  0.0431  0.0392  -1.4952   0.0000   0.4186
   3.000   1.2563   0.00994   0.00354  -0.2090  0.0378  0.0643  -1.6010   0.0000   0.4102
   3.500   1.3107   0.01019   0.00377  -0.2088  0.0370  0.0671  -1.7172   0.0000   0.4025
   4.500   1.4149   0.01099   0.00450  -0.2076  0.0169  0.1017  -2.0075   0.0000   0.3884
   5.000   1.4641   0.01158   0.00506  -0.2065  0.0040  0.1212  -2.1883   0.0000   0.3819
   5.500   1.5166   0.01193   0.00547  -0.2061  0.0031  0.1935  -2.3703   0.0000   0.3760
   6.000   1.5711   0.01220   0.00595  -0.2063  0.0017  0.3376  -2.5597   0.0000   0.3706
   6.500   1.6217   0.01261   0.00640  -0.2056  0.0014  0.3878  -2.7479   0.0000   0.3652
   7.000   1.6711   0.01306   0.00690  -0.2047  0.0013  0.4322  -2.9385   0.0000   0.3601
   7.500   1.7197   0.01353   0.00745  -0.2037  0.0013  0.4979  -3.1321   0.0000   0.3552
   8.000   1.7644   0.01409   0.00802  -0.2018  0.0013  0.4980  -3.3225   0.0000   0.3503
   8.500   1.8075   0.01469   0.00864  -0.1997  0.0012  0.5211  -3.5135   0.0000   0.3455
   9.000   1.8401   0.01536   0.00933  -0.1955  0.0012  0.5309  -3.6995   0.0000   0.3404
   9.500   1.8737   0.01611   0.01014  -0.1917  0.0012  0.5633  -3.9380   0.0000   0.3355
  10.000   1.9064   0.01699   0.01107  -0.1879  0.0012  0.5971  -4.2389   0.0000   0.3308
  10.500   1.9380   0.01800   0.01217  -0.1842  0.0011  0.6455  -4.7253   0.0000   0.3263
  11.000   1.9673   0.01918   0.01343  -0.1803  0.0011  0.6846  -5.2201   0.0000   0.3220
  11.500   1.9947   0.02056   0.01486  -0.1764  0.0011  0.7075  -5.7211   0.0000   0.3177
  12.000   2.0200   0.02219   0.01658  -0.1725  0.0011  0.7424  -6.2256   0.0000   0.3136
  12.500   2.0424   0.02410   0.01860  -0.1686  0.0011  0.7891  -6.7243   0.0000   0.3097
  13.000   2.0713   0.02608   0.02082  -0.1663  0.0010  0.9427  -7.3515   0.0000   0.3063
  14.000   2.1054   0.03127   0.02617  -0.1588  0.0009  1.0000  -8.3991   0.0000   0.2992
  14.500   2.1204   0.03441   0.02937  -0.1556  0.0009  1.0000  -8.9299   0.0000   0.2959
  15.000   2.1328   0.03796   0.03298  -0.1525  0.0009  1.0000  -9.4547   0.0000   0.2929
  15.500   2.1416   0.04192   0.03702  -0.1496  0.0009  1.0000  -9.9605   0.0000   0.2899
  16.000   2.1482   0.04642   0.04160  -0.1470  0.0008  1.0000  -10.4629   0.0000   0.2872
  16.500   2.1553   0.05111   0.04637  -0.1448  0.0008  1.0000  -10.9806   0.0000   0.2847
  17.000   2.1624   0.05599   0.05133  -0.1429  0.0008  1.0000  -11.5089   0.0000   0.2823
  17.500   2.1628   0.06189   0.05732  -0.1414  0.0008  1.0000  -11.9873   0.0000   0.2802
  18.000   2.1600   0.06836   0.06389  -0.1403  0.0008  1.0000  -12.4436   0.0000   0.2784
  18.500   2.1542   0.07536   0.07100  -0.1396  0.0007  1.0000  -12.8765   0.0000   0.2768
  19.000   2.1498   0.08199   0.07773  -0.1392  0.0007  1.0000  -13.3317   0.0000   0.2752
  19.500   2.1438   0.08902   0.08487  -0.1391  0.0007  1.0000  -13.7722   0.0000   0.2739
  20.000   2.1314   0.09733   0.09330  -0.1399  0.0007  1.0000  -14.1458   0.0000   0.2731


