XFLR5 v6.02 Beta

 Calculated polar for: WORTMANN FX 63-137

 1 1 Reynolds number fixed          Mach number fixed         

 xtrf =   1.000 (top)        1.000 (bottom)
 Mach =   0.000     Re =    18.500 e 6     Ncrit =   9.000

  alpha     CL        CD       CDp       CM    Top Xtr Bot Xtr   Cpmin    Chinge    XCp    
 ------- -------- --------- --------- -------- ------- ------- -------- --------- ---------
 -20.000  -1.1449   0.04028   0.03724  -0.1587  0.7196  0.0030  -24.4719   0.0000   0.0796
 -19.500  -1.1543   0.03314   0.02994  -0.1651  0.6917  0.0031  -24.2978   0.0000   0.0769
 -19.000  -1.1482   0.02830   0.02495  -0.1690  0.6618  0.0031  -23.8296   0.0000   0.0741
 -18.000  -1.1234   0.02078   0.01721  -0.1738  0.6249  0.0032  -22.6507   0.0000   0.0693
 -17.500  -1.0873   0.01797   0.01430  -0.1781  0.6137  0.0033  -21.7619   0.0000   0.0611
 -17.000  -1.0365   0.01568   0.01191  -0.1840  0.5944  0.0034  -20.7073   0.0000   0.0480
 -16.500  -0.9874   0.01456   0.01053  -0.1864  0.5008  0.0034  -19.6591   0.0000   0.0373
 -16.000  -0.9344   0.01368   0.00953  -0.1880  0.4802  0.0035  -18.5760   0.0000   0.0254
 -15.500  -0.8792   0.01288   0.00868  -0.1894  0.4684  0.0036  -17.4915   0.0000   0.0114
 -15.000  -0.8229   0.01217   0.00793  -0.1908  0.4651  0.0036  -16.4220   0.0000  -0.0048
 -14.000  -0.7110   0.01112   0.00667  -0.1927  0.4017  0.0037  -14.3733   0.0000  -0.0439
 -13.500  -0.6554   0.01075   0.00611  -0.1934  0.3373  0.0038  -13.4000   0.0000  -0.0680
 -13.000  -0.5977   0.01034   0.00563  -0.1943  0.3175  0.0038  -12.4728   0.0000  -0.0984
 -12.500  -0.5394   0.00996   0.00517  -0.1952  0.2989  0.0039  -11.5953   0.0000  -0.1359
 -12.000  -0.4806   0.00961   0.00476  -0.1962  0.2859  0.0039  -10.7357   0.0000  -0.1831
 -11.500  -0.4215   0.00930   0.00441  -0.1971  0.2791  0.0040  -9.8644   0.0000  -0.2441
 -10.500  -0.3042   0.00882   0.00375  -0.1987  0.2214  0.0041  -8.2685   0.0000  -0.4347
 -10.000  -0.2444   0.00855   0.00345  -0.1997  0.2202  0.0041  -7.5100   0.0000  -0.6034
  -9.500  -0.1853   0.00836   0.00317  -0.2004  0.1925  0.0042  -6.8062   0.0000  -0.8763
  -9.000  -0.1256   0.00816   0.00290  -0.2013  0.1775  0.0042  -6.1771   0.0000  -1.4142
  -8.500  -0.0656   0.00796   0.00267  -0.2022  0.1702  0.0042  -5.5262   0.0000  -2.9432
  -8.000  -0.0055   0.00779   0.00247  -0.2031  0.1694  0.0043  -4.9152   0.0000  -38.1191
  -7.500   0.0546   0.00763   0.00229  -0.2039  0.1684  0.0043  -4.3464   0.0000   4.0957
  -6.500   0.1737   0.00746   0.00203  -0.2053  0.1428  0.0044  -3.5826   0.0000   1.4622
  -6.000   0.2335   0.00738   0.00193  -0.2060  0.1374  0.0044  -3.2622   0.0000   1.1530
  -5.500   0.2930   0.00733   0.00185  -0.2067  0.1320  0.0044  -2.9056   0.0000   0.9704
  -5.000   0.3526   0.00728   0.00179  -0.2074  0.1265  0.0044  -2.5729   0.0000   0.8494
  -4.500   0.4121   0.00724   0.00174  -0.2081  0.1239  0.0045  -2.2567   0.0000   0.7634
  -3.000   0.5878   0.00737   0.00176  -0.2095  0.0983  0.0073  -1.3746   0.0000   0.6099
  -2.500   0.6463   0.00741   0.00178  -0.2100  0.0948  0.0083  -1.1077   0.0000   0.5773
  -2.000   0.7047   0.00747   0.00181  -0.2104  0.0890  0.0085  -0.9512   0.0000   0.5500
  -1.500   0.7633   0.00751   0.00186  -0.2109  0.0857  0.0143  -1.0009   0.0000   0.5268
  -1.000   0.8213   0.00758   0.00192  -0.2113  0.0841  0.0152  -1.0531   0.0000   0.5070
  -0.500   0.8790   0.00767   0.00200  -0.2117  0.0833  0.0155  -1.1054   0.0000   0.4897
   0.000   0.9365   0.00777   0.00209  -0.2120  0.0825  0.0158  -1.1580   0.0000   0.4745
   0.500   0.9925   0.00800   0.00226  -0.2120  0.0660  0.0161  -1.2105   0.0000   0.4610
   1.000   1.0512   0.00798   0.00229  -0.2125  0.0827  0.0172  -1.2748   0.0000   0.4489
   1.500   1.1079   0.00811   0.00242  -0.2127  0.0816  0.0181  -1.3500   0.0000   0.4380
   2.000   1.1618   0.00848   0.00268  -0.2124  0.0595  0.0235  -1.4236   0.0000   0.4281
   2.500   1.2161   0.00880   0.00296  -0.2121  0.0368  0.0379  -1.5111   0.0000   0.4190
   3.000   1.2672   0.00937   0.00340  -0.2112  0.0037  0.0404  -1.6162   0.0000   0.4105
   3.500   1.3216   0.00963   0.00365  -0.2110  0.0030  0.0502  -1.7323   0.0000   0.4028
   4.000   1.3760   0.00988   0.00391  -0.2108  0.0036  0.0656  -1.8663   0.0000   0.3956
   4.500   1.4293   0.01019   0.00420  -0.2104  0.0029  0.0680  -2.0418   0.0000   0.3889
   5.000   1.4822   0.01050   0.00451  -0.2100  0.0021  0.0827  -2.2213   0.0000   0.3826
   5.500   1.5348   0.01082   0.00484  -0.2096  0.0015  0.1116  -2.4046   0.0000   0.3766
   6.000   1.5880   0.01112   0.00522  -0.2093  0.0013  0.1954  -2.5936   0.0000   0.3711
   6.500   1.6392   0.01149   0.00561  -0.2087  0.0013  0.2268  -2.7842   0.0000   0.3657
   7.000   1.6897   0.01188   0.00603  -0.2079  0.0012  0.2638  -2.9780   0.0000   0.3606
   7.500   1.7406   0.01227   0.00650  -0.2073  0.0012  0.3410  -3.1768   0.0000   0.3558
   8.000   1.7869   0.01277   0.00695  -0.2057  0.0012  0.3070  -3.3717   0.0000   0.3510
   8.500   1.8359   0.01321   0.00751  -0.2049  0.0012  0.4142  -3.5754   0.0000   0.3465
   9.000   1.8807   0.01376   0.00807  -0.2031  0.0012  0.4347  -3.8135   0.0000   0.3420
   9.500   1.9223   0.01434   0.00869  -0.2008  0.0012  0.4641  -4.0771   0.0000   0.3375
  10.000   1.9538   0.01499   0.00942  -0.1964  0.0011  0.5204  -4.5187   0.0000   0.3327
  10.500   1.9851   0.01578   0.01022  -0.1922  0.0011  0.5299  -5.0225   0.0000   0.3280
  11.000   2.0166   0.01667   0.01116  -0.1883  0.0011  0.5567  -5.5494   0.0000   0.3236
  11.500   2.0459   0.01771   0.01224  -0.1842  0.0011  0.5823  -6.0837   0.0000   0.3192
  12.000   2.0746   0.01891   0.01351  -0.1803  0.0011  0.6250  -6.6383   0.0000   0.3151
  12.500   2.1006   0.02033   0.01499  -0.1762  0.0010  0.6525  -7.2042   0.0000   0.3110
  13.000   2.1253   0.02196   0.01670  -0.1723  0.0010  0.6905  -7.7724   0.0000   0.3071
  13.500   2.1464   0.02386   0.01866  -0.1683  0.0009  0.7176  -8.3341   0.0000   0.3033
  14.000   2.1679   0.02604   0.02094  -0.1647  0.0009  0.7678  -8.9154   0.0000   0.2998
  14.500   2.1886   0.02852   0.02353  -0.1616  0.0009  0.8288  -9.5072   0.0000   0.2964
  15.000   2.2103   0.03129   0.02654  -0.1592  0.0009  1.0000  -10.1232   0.0000   0.2934
  15.500   2.2243   0.03448   0.02979  -0.1559  0.0008  1.0000  -10.6952   0.0000   0.2902
  16.000   2.2356   0.03810   0.03346  -0.1529  0.0008  1.0000  -11.2585   0.0000   0.2872
  16.500   2.2430   0.04215   0.03757  -0.1499  0.0008  1.0000  -11.8013   0.0000   0.2844
  17.000   2.2483   0.04677   0.04226  -0.1473  0.0008  1.0000  -12.3370   0.0000   0.2817
  17.500   2.2531   0.05172   0.04728  -0.1451  0.0008  1.0000  -12.8780   0.0000   0.2793
  18.000   2.2610   0.05644   0.05206  -0.1433  0.0007  1.0000  -13.4593   0.0000   0.2769
  18.500   2.2599   0.06245   0.05815  -0.1418  0.0007  1.0000  -13.9647   0.0000   0.2748
  19.000   2.2551   0.06910   0.06489  -0.1407  0.0007  1.0000  -14.4404   0.0000   0.2730
  19.500   2.2470   0.07631   0.07220  -0.1401  0.0006  1.0000  -14.8876   0.0000   0.2714
  20.000   2.2365   0.08361   0.07961  -0.1397  0.0006  1.0000  -15.3142   0.0000   0.2700


