XFLR5 v6.02 Beta

 Calculated polar for: WORTMANN FX 63-137

 1 1 Reynolds number fixed          Mach number fixed         

 xtrf =   1.000 (top)        1.000 (bottom)
 Mach =   0.000     Re =    12.000 e 6     Ncrit =   9.000

  alpha     CL        CD       CDp       CM    Top Xtr Bot Xtr   Cpmin    Chinge    XCp    
 ------- -------- --------- --------- -------- ------- ------- -------- --------- ---------
 -19.000  -1.0056   0.04599   0.04308  -0.1518  0.7564  0.0034  -21.2056   0.0000   0.0678
 -18.500  -1.0300   0.03630   0.03320  -0.1605  0.7400  0.0034  -21.3411   0.0000   0.0649
 -18.000  -1.0273   0.03064   0.02739  -0.1654  0.7208  0.0034  -20.9779   0.0000   0.0612
 -17.500  -1.0174   0.02584   0.02250  -0.1696  0.7176  0.0035  -20.4892   0.0000   0.0569
 -17.000  -1.0032   0.02218   0.01871  -0.1720  0.6965  0.0035  -19.9082   0.0000   0.0534
 -16.500  -0.9726   0.01929   0.01568  -0.1756  0.6686  0.0036  -19.1306   0.0000   0.0452
 -16.000  -0.9260   0.01694   0.01316  -0.1810  0.6296  0.0036  -18.1768   0.0000   0.0310
 -15.500  -0.8725   0.01532   0.01137  -0.1853  0.5961  0.0037  -17.1481   0.0000   0.0144
 -15.000  -0.8184   0.01425   0.01024  -0.1874  0.5935  0.0037  -16.1138   0.0000  -0.0019
 -14.500  -0.7655   0.01346   0.00930  -0.1886  0.5558  0.0038  -15.1146   0.0000  -0.0192
 -14.000  -0.7101   0.01270   0.00844  -0.1900  0.5370  0.0039  -14.1190   0.0000  -0.0404
 -13.500  -0.6596   0.01232   0.00770  -0.1902  0.4177  0.0039  -13.2032   0.0000  -0.0612
 -13.000  -0.6021   0.01169   0.00700  -0.1915  0.4016  0.0040  -12.2427   0.0000  -0.0912
 -12.500  -0.5437   0.01109   0.00636  -0.1928  0.3996  0.0040  -11.3056   0.0000  -0.1285
 -12.000  -0.4866   0.01066   0.00579  -0.1938  0.3622  0.0041  -10.4119   0.0000  -0.1728
 -11.500  -0.4279   0.01021   0.00527  -0.1949  0.3514  0.0042  -9.5278   0.0000  -0.2315
 -11.000  -0.3684   0.00975   0.00476  -0.1961  0.3391  0.0042  -8.6816   0.0000  -0.3103
 -10.500  -0.3102   0.00944   0.00432  -0.1970  0.3021  0.0043  -7.8787   0.0000  -0.4160
  -4.000   0.4638   0.00770   0.00184  -0.2070  0.1347  0.0045  -1.9402   0.0000   0.7028
  -3.500   0.5228   0.00771   0.00183  -0.2076  0.1291  0.0055  -1.6632   0.0000   0.6519
  -3.000   0.5817   0.00772   0.00184  -0.2081  0.1231  0.0091  -1.3848   0.0000   0.6113
  -2.500   0.6407   0.00773   0.00185  -0.2087  0.1213  0.0141  -1.1225   0.0000   0.5782
  -2.000   0.6975   0.00791   0.00194  -0.2089  0.0989  0.0141  -0.9466   0.0000   0.5508
  -1.500   0.7554   0.00800   0.00199  -0.2092  0.0955  0.0151  -0.9956   0.0000   0.5275
  -1.000   0.8132   0.00809   0.00206  -0.2096  0.0891  0.0156  -1.0474   0.0000   0.5074
  -0.500   0.8708   0.00819   0.00215  -0.2099  0.0853  0.0159  -1.0996   0.0000   0.4899
   0.000   0.9282   0.00829   0.00225  -0.2102  0.0839  0.0161  -1.1520   0.0000   0.4746
   0.500   0.9854   0.00841   0.00236  -0.2104  0.0831  0.0164  -1.2050   0.0000   0.4610
   1.500   1.0991   0.00866   0.00260  -0.2109  0.0832  0.0196  -1.3418   0.0000   0.4379
   2.000   1.1554   0.00881   0.00276  -0.2110  0.0822  0.0265  -1.4174   0.0000   0.4279
   2.500   1.2066   0.00939   0.00318  -0.2102  0.0381  0.0383  -1.5010   0.0000   0.4188
   3.000   1.2616   0.00961   0.00339  -0.2101  0.0371  0.0485  -1.6086   0.0000   0.4104
   3.500   1.3116   0.01025   0.00392  -0.2090  0.0044  0.0660  -1.7193   0.0000   0.4025
   4.000   1.3676   0.01033   0.00403  -0.2092  0.0170  0.0673  -1.8446   0.0000   0.3954
   4.500   1.4182   0.01085   0.00451  -0.2082  0.0042  0.0804  -2.0225   0.0000   0.3885
   5.000   1.4706   0.01119   0.00486  -0.2077  0.0033  0.1048  -2.1999   0.0000   0.3822
   5.500   1.5228   0.01154   0.00524  -0.2072  0.0025  0.1466  -2.3822   0.0000   0.3762
   6.000   1.5767   0.01183   0.00567  -0.2072  0.0014  0.2725  -2.5711   0.0000   0.3707
   6.500   1.6277   0.01221   0.00611  -0.2066  0.0013  0.3233  -2.7606   0.0000   0.3654
   7.000   1.6779   0.01263   0.00657  -0.2058  0.0013  0.3707  -2.9531   0.0000   0.3603
   7.500   1.7283   0.01304   0.00711  -0.2052  0.0012  0.4634  -3.1502   0.0000   0.3555
   8.000   1.7730   0.01360   0.00762  -0.2033  0.0012  0.4339  -3.3412   0.0000   0.3505
   8.500   1.8190   0.01413   0.00822  -0.2018  0.0012  0.4971  -3.5383   0.0000   0.3459
   9.000   1.8574   0.01475   0.00885  -0.1988  0.0012  0.5033  -3.7474   0.0000   0.3411
   9.500   1.8901   0.01544   0.00958  -0.1947  0.0012  0.5301  -3.9852   0.0000   0.3362
  10.000   1.9230   0.01623   0.01043  -0.1908  0.0011  0.5634  -4.3379   0.0000   0.3315
  10.500   1.9551   0.01715   0.01141  -0.1870  0.0011  0.5946  -4.8351   0.0000   0.3269
  11.000   1.9849   0.01822   0.01254  -0.1831  0.0011  0.6339  -5.3404   0.0000   0.3225
  11.500   2.0134   0.01947   0.01387  -0.1792  0.0011  0.6754  -5.8577   0.0000   0.3182
  12.000   2.0396   0.02094   0.01540  -0.1752  0.0011  0.7018  -6.3796   0.0000   0.3141
  12.500   2.0648   0.02259   0.01713  -0.1714  0.0010  0.7336  -6.9363   0.0000   0.3102
  13.000   2.0874   0.02451   0.01915  -0.1676  0.0010  0.7786  -7.4845   0.0000   0.3064
  13.500   2.1114   0.02672   0.02151  -0.1646  0.0009  0.8673  -8.0552   0.0000   0.3029
  14.000   2.1322   0.02916   0.02415  -0.1615  0.0009  1.0000  -8.6205   0.0000   0.2995
  14.500   2.1485   0.03205   0.02709  -0.1581  0.0009  1.0000  -9.1685   0.0000   0.2962
  15.000   2.1626   0.03530   0.03040  -0.1549  0.0009  1.0000  -9.7146   0.0000   0.2930
  15.500   2.1740   0.03896   0.03412  -0.1519  0.0008  1.0000  -10.2507   0.0000   0.2900
  16.000   2.1816   0.04306   0.03830  -0.1490  0.0008  1.0000  -10.7702   0.0000   0.2871
  16.500   2.1874   0.04771   0.04302  -0.1465  0.0008  1.0000  -11.2862   0.0000   0.2845
  17.000   2.1915   0.05283   0.04823  -0.1444  0.0008  1.0000  -11.7964   0.0000   0.2821
  17.500   2.1927   0.05851   0.05399  -0.1426  0.0008  1.0000  -12.2899   0.0000   0.2799
  18.000   2.1999   0.06349   0.05904  -0.1412  0.0007  1.0000  -12.8471   0.0000   0.2776
  18.500   2.1960   0.07010   0.06575  -0.1402  0.0007  1.0000  -13.3118   0.0000   0.2758
  19.000   2.1891   0.07724   0.07299  -0.1396  0.0007  1.0000  -13.7499   0.0000   0.2743
  19.500   2.1777   0.08479   0.08066  -0.1394  0.0007  1.0000  -14.1478   0.0000   0.2730
  20.000   2.1644   0.09307   0.08906  -0.1398  0.0007  1.0000  -14.5234   0.0000   0.2721


