XFLR5 v6.02 Beta

 Calculated polar for: WORTMANN FX 63-137

 1 1 Reynolds number fixed          Mach number fixed         

 xtrf =   1.000 (top)        1.000 (bottom)
 Mach =   0.000     Re =     5.400 e 6     Ncrit =   9.000

  alpha     CL        CD       CDp       CM    Top Xtr Bot Xtr   Cpmin    Chinge    XCp    
 ------- -------- --------- --------- -------- ------- ------- -------- --------- ---------
 -16.000  -0.7590   0.04003   0.03745  -0.1532  0.8641  0.0041  -15.0866   0.0000   0.0201
 -15.500  -0.7727   0.03139   0.02843  -0.1615  0.8029  0.0041  -15.0821   0.0000   0.0149
 -15.000  -0.7675   0.02592   0.02275  -0.1662  0.7752  0.0042  -14.7488   0.0000   0.0089
 -14.500  -0.7496   0.02189   0.01851  -0.1703  0.7418  0.0042  -14.2428   0.0000  -0.0006
 -14.000  -0.7061   0.01856   0.01502  -0.1773  0.7205  0.0043  -13.4831   0.0000  -0.0241
 -13.500  -0.6497   0.01626   0.01260  -0.1837  0.7161  0.0043  -12.5927   0.0000  -0.0558
 -13.000  -0.5983   0.01522   0.01139  -0.1855  0.6742  0.0044  -11.7222   0.0000  -0.0832
  -6.000   0.2163   0.00842   0.00225  -0.2019  0.2750  0.0059  -3.0439   0.0000   1.2053
  -5.500   0.2711   0.00873   0.00257  -0.2016  0.2397  0.0058  -2.5513   0.0000   1.0096
  -5.000   0.3305   0.00866   0.00244  -0.2023  0.2244  0.0055  -2.2556   0.0000   0.8738
  -4.500   0.3908   0.00854   0.00227  -0.2032  0.2204  0.0052  -1.9920   0.0000   0.7787
  -4.000   0.4503   0.00850   0.00209  -0.2039  0.1993  0.0049  -1.8070   0.0000   0.7094
  -3.500   0.5094   0.00851   0.00203  -0.2045  0.1866  0.0049  -1.6112   0.0000   0.6564
  -3.000   0.5687   0.00849   0.00202  -0.2052  0.1767  0.0149  -1.3910   0.0000   0.6144
  -2.500   0.6271   0.00852   0.00203  -0.2056  0.1695  0.0155  -1.1125   0.0000   0.5804
  -2.000   0.6831   0.00878   0.00214  -0.2057  0.1373  0.0155  -0.9376   0.0000   0.5525
  -1.500   0.7409   0.00887   0.00219  -0.2060  0.1296  0.0160  -0.9856   0.0000   0.5286
  -1.000   0.7987   0.00895   0.00226  -0.2064  0.1240  0.0163  -1.0373   0.0000   0.5081
  -0.500   0.8562   0.00905   0.00234  -0.2067  0.1219  0.0165  -1.0892   0.0000   0.4904
   1.500   1.0801   0.00984   0.00299  -0.2069  0.0872  0.0254  -1.3237   0.0000   0.4376
   2.000   1.1362   0.01000   0.00318  -0.2070  0.0843  0.0373  -1.3989   0.0000   0.4275
   2.500   1.1878   0.01051   0.00358  -0.2063  0.0576  0.0463  -1.4796   0.0000   0.4183
   3.000   1.2424   0.01077   0.00385  -0.2062  0.0498  0.0725  -1.5747   0.0000   0.4098
   3.500   1.2960   0.01108   0.00417  -0.2059  0.0441  0.1005  -1.6939   0.0000   0.4020
   4.000   1.3495   0.01135   0.00445  -0.2056  0.0442  0.1099  -1.8196   0.0000   0.3947
   4.500   1.4024   0.01168   0.00480  -0.2052  0.0376  0.1529  -1.9928   0.0000   0.3880
   5.000   1.4562   0.01195   0.00517  -0.2051  0.0359  0.2283  -2.1737   0.0000   0.3817
   5.500   1.5080   0.01250   0.00586  -0.2049  0.0167  0.3942  -2.3413   0.0000   0.3760
   6.000   1.5545   0.01327   0.00670  -0.2034  0.0032  0.4697  -2.5281   0.0000   0.3702
   6.500   1.6028   0.01376   0.00722  -0.2023  0.0023  0.4980  -2.7106   0.0000   0.3647
   7.000   1.6498   0.01428   0.00778  -0.2009  0.0017  0.5308  -2.8950   0.0000   0.3594
   7.500   1.6943   0.01486   0.00837  -0.1990  0.0013  0.5491  -3.0794   0.0000   0.3543
   8.000   1.7322   0.01549   0.00902  -0.1958  0.0013  0.5627  -3.2550   0.0000   0.3490
   8.500   1.7671   0.01621   0.00980  -0.1922  0.0013  0.5850  -3.4279   0.0000   0.3438
   9.000   1.8015   0.01703   0.01070  -0.1886  0.0013  0.6293  -3.6027   0.0000   0.3389
   9.500   1.8346   0.01798   0.01173  -0.1851  0.0012  0.6723  -3.8241   0.0000   0.3341
  10.000   1.8645   0.01910   0.01292  -0.1811  0.0012  0.6968  -4.0528   0.0000   0.3294
  10.500   1.8927   0.02043   0.01434  -0.1771  0.0012  0.7222  -4.4092   0.0000   0.3249
  11.000   1.9195   0.02200   0.01602  -0.1733  0.0012  0.7663  -4.8337   0.0000   0.3206
  11.500   1.9431   0.02395   0.01816  -0.1694  0.0012  0.8244  -5.1865   0.0000   0.3165
  14.500   2.0438   0.04130   0.03611  -0.1494  0.0010  1.0000  -8.1634   0.0000   0.2957
  15.000   2.0505   0.04574   0.04066  -0.1467  0.0010  1.0000  -8.6107   0.0000   0.2929
  15.500   2.0593   0.05023   0.04524  -0.1444  0.0009  1.0000  -9.0854   0.0000   0.2902
  16.000   2.0591   0.05605   0.05121  -0.1423  0.0009  1.0000  -9.4453   0.0000   0.2879
  16.500   2.0581   0.06220   0.05750  -0.1407  0.0009  1.0000  -9.8402   0.0000   0.2858
  17.000   2.0559   0.06871   0.06412  -0.1396  0.0009  1.0000  -10.2572   0.0000   0.2840
  17.500   2.0512   0.07570   0.07124  -0.1390  0.0009  1.0000  -10.6611   0.0000   0.2825
  18.000   2.0440   0.08293   0.07860  -0.1387  0.0009  1.0000  -11.0477   0.0000   0.2812
  18.500   2.0338   0.09088   0.08669  -0.1390  0.0008  1.0000  -11.4069   0.0000   0.2802
  19.000   2.0300   0.09802   0.09394  -0.1395  0.0008  1.0000  -11.8295   0.0000   0.2792
  19.500   2.0158   0.10697   0.10304  -0.1410  0.0008  1.0000  -12.1431   0.0000   0.2789
  20.000   2.0065   0.11521   0.11139  -0.1429  0.0008  1.0000  -12.5589   0.0000   0.2787


