XFLR5 v6.02 Beta

 Calculated polar for: WORTMANN FX 63-137

 1 1 Reynolds number fixed          Mach number fixed         

 xtrf =   1.000 (top)        1.000 (bottom)
 Mach =   0.000     Re =    19.000 e 6     Ncrit =   9.000

  alpha     CL        CD       CDp       CM    Top Xtr Bot Xtr   Cpmin    Chinge    XCp    
 ------- -------- --------- --------- -------- ------- ------- -------- --------- ---------
 -20.000  -1.1490   0.03976   0.03672  -0.1592  0.7180  0.0030  -24.5515   0.0000   0.0798
 -19.500  -1.1580   0.03272   0.02949  -0.1655  0.6832  0.0031  -24.3670   0.0000   0.0771
 -19.000  -1.1514   0.02793   0.02456  -0.1694  0.6597  0.0031  -23.8903   0.0000   0.0743
 -18.500  -1.1411   0.02369   0.02018  -0.1727  0.6285  0.0032  -23.3418   0.0000   0.0715
 -18.000  -1.1265   0.02041   0.01682  -0.1743  0.6182  0.0032  -22.7074   0.0000   0.0693
 -17.500  -1.0885   0.01768   0.01400  -0.1788  0.6064  0.0033  -21.7929   0.0000   0.0607
 -17.000  -1.0378   0.01550   0.01166  -0.1845  0.5647  0.0034  -20.7379   0.0000   0.0478
 -16.500  -0.9881   0.01444   0.01038  -0.1866  0.4915  0.0034  -19.6770   0.0000   0.0373
 -16.000  -0.9346   0.01356   0.00942  -0.1882  0.4728  0.0035  -18.5872   0.0000   0.0252
 -15.500  -0.8791   0.01277   0.00857  -0.1897  0.4664  0.0036  -17.4997   0.0000   0.0111
 -15.000  -0.8227   0.01207   0.00783  -0.1910  0.4649  0.0036  -16.4287   0.0000  -0.0051
 -14.500  -0.7670   0.01152   0.00718  -0.1920  0.4327  0.0037  -15.3934   0.0000  -0.0231
 -14.000  -0.7106   0.01104   0.00659  -0.1929  0.4003  0.0037  -14.3797   0.0000  -0.0443
 -13.500  -0.6549   0.01066   0.00604  -0.1936  0.3372  0.0037  -13.4051   0.0000  -0.0685
 -13.000  -0.5974   0.01027   0.00556  -0.1944  0.3070  0.0038  -12.4912   0.0000  -0.0988
 -12.500  -0.5391   0.00990   0.00511  -0.1954  0.2950  0.0038  -11.6147   0.0000  -0.1364
 -12.000  -0.4802   0.00954   0.00470  -0.1963  0.2806  0.0039  -10.7564   0.0000  -0.1839
 -11.500  -0.4209   0.00922   0.00435  -0.1973  0.2784  0.0040  -9.8906   0.0000  -0.2451
 -11.000  -0.3625   0.00899   0.00402  -0.1980  0.2473  0.0040  -9.0829   0.0000  -0.3248
 -10.500  -0.3036   0.00876   0.00371  -0.1988  0.2211  0.0041  -8.2987   0.0000  -0.4365
 -10.000  -0.2438   0.00850   0.00341  -0.1998  0.2201  0.0041  -7.5400   0.0000  -0.6060
  -9.500  -0.1848   0.00832   0.00314  -0.2005  0.1905  0.0042  -6.8362   0.0000  -0.8798
  -9.000  -0.1250   0.00811   0.00287  -0.2014  0.1756  0.0042  -6.2076   0.0000  -1.4228
  -8.500  -0.0650   0.00792   0.00265  -0.2023  0.1700  0.0042  -5.5565   0.0000  -2.9724
  -8.000  -0.0049   0.00775   0.00245  -0.2032  0.1692  0.0043  -4.9462   0.0000  -42.3838
  -7.500   0.0552   0.00759   0.00228  -0.2040  0.1682  0.0043  -4.3791   0.0000   4.0597
  -7.000   0.1143   0.00753   0.00214  -0.2047  0.1465  0.0044  -3.9404   0.0000   2.0905
  -6.500   0.1742   0.00743   0.00202  -0.2054  0.1416  0.0043  -3.6066   0.0000   1.4594
  -5.500   0.2935   0.00729   0.00184  -0.2068  0.1309  0.0044  -2.9104   0.0000   0.9696
  -5.000   0.3530   0.00725   0.00178  -0.2075  0.1254  0.0044  -2.5754   0.0000   0.8489
  -4.500   0.4125   0.00721   0.00174  -0.2082  0.1238  0.0045  -2.2570   0.0000   0.7631
  -3.500   0.5308   0.00720   0.00170  -0.2093  0.1221  0.0046  -1.6517   0.0000   0.6493
  -3.000   0.5882   0.00734   0.00175  -0.2096  0.0977  0.0072  -1.3741   0.0000   0.6098
  -2.500   0.6467   0.00739   0.00177  -0.2101  0.0942  0.0082  -1.1069   0.0000   0.5772
  -2.000   0.7051   0.00744   0.00181  -0.2105  0.0884  0.0084  -0.9515   0.0000   0.5499
  -1.500   0.7637   0.00748   0.00185  -0.2110  0.0853  0.0143  -1.0013   0.0000   0.5268
  -1.000   0.8217   0.00755   0.00191  -0.2114  0.0840  0.0152  -1.0534   0.0000   0.5069
  -0.500   0.8795   0.00764   0.00199  -0.2118  0.0832  0.0155  -1.1058   0.0000   0.4897
   0.000   0.9370   0.00774   0.00209  -0.2121  0.0824  0.0158  -1.1584   0.0000   0.4745
   0.500   0.9928   0.00798   0.00226  -0.2120  0.0646  0.0161  -1.2107   0.0000   0.4610
   1.000   1.0517   0.00795   0.00228  -0.2126  0.0826  0.0172  -1.2753   0.0000   0.4489
   2.000   1.1623   0.00845   0.00267  -0.2125  0.0585  0.0233  -1.4240   0.0000   0.4281
   2.500   1.2166   0.00877   0.00295  -0.2122  0.0368  0.0379  -1.5117   0.0000   0.4190
   3.000   1.2678   0.00933   0.00339  -0.2113  0.0036  0.0401  -1.6169   0.0000   0.4105
   3.500   1.3222   0.00959   0.00364  -0.2111  0.0029  0.0499  -1.7330   0.0000   0.4028
   4.500   1.4299   0.01015   0.00418  -0.2106  0.0028  0.0675  -2.0430   0.0000   0.3889
   5.000   1.4829   0.01046   0.00449  -0.2102  0.0021  0.0820  -2.2225   0.0000   0.3826
   5.500   1.5355   0.01078   0.00482  -0.2097  0.0015  0.1103  -2.4060   0.0000   0.3767
   6.000   1.5887   0.01108   0.00520  -0.2095  0.0013  0.1950  -2.5951   0.0000   0.3711
   6.500   1.6399   0.01145   0.00558  -0.2088  0.0013  0.2202  -2.7857   0.0000   0.3658
   7.000   1.6904   0.01184   0.00600  -0.2080  0.0012  0.2581  -2.9796   0.0000   0.3607
   7.500   1.7411   0.01223   0.00645  -0.2074  0.0012  0.3301  -3.1781   0.0000   0.3559
   8.000   1.7879   0.01272   0.00691  -0.2059  0.0012  0.3068  -3.3739   0.0000   0.3510
   8.500   1.8369   0.01316   0.00747  -0.2050  0.0012  0.4042  -3.5775   0.0000   0.3466
   9.000   1.8820   0.01370   0.00803  -0.2033  0.0012  0.4335  -3.8169   0.0000   0.3421
   9.500   1.9242   0.01428   0.00864  -0.2011  0.0011  0.4601  -4.0824   0.0000   0.3376
  10.000   1.9556   0.01492   0.00936  -0.1968  0.0011  0.5168  -4.5293   0.0000   0.3328
  10.500   1.9869   0.01570   0.01016  -0.1925  0.0011  0.5281  -5.0339   0.0000   0.3281
  11.000   2.0182   0.01659   0.01108  -0.1885  0.0011  0.5503  -5.5598   0.0000   0.3236
  11.500   2.0476   0.01761   0.01215  -0.1844  0.0011  0.5759  -6.0961   0.0000   0.3193
  12.000   2.0765   0.01880   0.01341  -0.1805  0.0011  0.6170  -6.6526   0.0000   0.3151
  12.500   2.1028   0.02019   0.01486  -0.1765  0.0010  0.6461  -7.2200   0.0000   0.3111
  13.000   2.1277   0.02182   0.01656  -0.1727  0.0010  0.6891  -7.7904   0.0000   0.3072
  13.500   2.1486   0.02371   0.01852  -0.1685  0.0009  0.7139  -8.3515   0.0000   0.3033
  14.000   2.1698   0.02587   0.02077  -0.1649  0.0009  0.7581  -8.9309   0.0000   0.2998
  14.500   2.1906   0.02833   0.02334  -0.1617  0.0009  0.8197  -9.5242   0.0000   0.2964
  15.000   2.2129   0.03108   0.02634  -0.1595  0.0009  1.0000  -10.1451   0.0000   0.2934
  15.500   2.2270   0.03426   0.02957  -0.1562  0.0008  1.0000  -10.7186   0.0000   0.2902
  16.000   2.2384   0.03785   0.03322  -0.1531  0.0008  1.0000  -11.2832   0.0000   0.2872
  16.500   2.2459   0.04187   0.03730  -0.1501  0.0008  1.0000  -11.8285   0.0000   0.2844
  17.000   2.2513   0.04647   0.04196  -0.1475  0.0008  1.0000  -12.3656   0.0000   0.2817
  17.500   2.2574   0.05124   0.04681  -0.1453  0.0008  1.0000  -12.9188   0.0000   0.2792
  18.000   2.2644   0.05606   0.05169  -0.1434  0.0007  1.0000  -13.4932   0.0000   0.2768
  18.500   2.2629   0.06210   0.05781  -0.1419  0.0007  1.0000  -13.9960   0.0000   0.2748
  19.000   2.2583   0.06872   0.06452  -0.1408  0.0007  1.0000  -14.4739   0.0000   0.2729
  19.500   2.2502   0.07592   0.07181  -0.1401  0.0006  1.0000  -14.9227   0.0000   0.2713
  20.000   2.2507   0.08158   0.07755  -0.1394  0.0006  1.0000  -15.4633   0.0000   0.2695


