XFLR5 v6.02 Beta

 Calculated polar for: WORTMANN FX 63-137

 1 1 Reynolds number fixed          Mach number fixed         

 xtrf =   1.000 (top)        1.000 (bottom)
 Mach =   0.000     Re =     5.800 e 6     Ncrit =   9.000

  alpha     CL        CD       CDp       CM    Top Xtr Bot Xtr   Cpmin    Chinge    XCp    
 ------- -------- --------- --------- -------- ------- ------- -------- --------- ---------
 -16.500  -0.7589   0.04785   0.04551  -0.1455  0.8931  0.0040  -15.2811   0.0000   0.0286
 -16.000  -0.7910   0.03550   0.03271  -0.1579  0.8248  0.0041  -15.6348   0.0000   0.0232
 -15.500  -0.7949   0.02860   0.02551  -0.1644  0.7840  0.0041  -15.4489   0.0000   0.0178
 -15.000  -0.7884   0.02393   0.02064  -0.1677  0.7536  0.0041  -15.0650   0.0000   0.0134
 -14.500  -0.7567   0.02026   0.01677  -0.1734  0.7259  0.0042  -14.4083   0.0000  -0.0023
 -14.000  -0.7046   0.01722   0.01360  -0.1812  0.7172  0.0042  -13.5559   0.0000  -0.0301
 -13.000  -0.5985   0.01450   0.01055  -0.1868  0.6588  0.0043  -11.7883   0.0000  -0.0853
 -12.500  -0.5462   0.01389   0.00976  -0.1877  0.6056  0.0044  -10.9157   0.0000  -0.1172
  -5.500   0.2716   0.00871   0.00261  -0.2018  0.2283  0.0059  -2.5341   0.0000   1.0088
  -5.000   0.3316   0.00859   0.00246  -0.2026  0.2210  0.0055  -2.2408   0.0000   0.8726
  -4.500   0.3920   0.00846   0.00227  -0.2035  0.2185  0.0051  -1.9813   0.0000   0.7778
  -4.000   0.4506   0.00850   0.00214  -0.2040  0.1890  0.0049  -1.7631   0.0000   0.7094
  -3.500   0.5105   0.00845   0.00201  -0.2047  0.1795  0.0048  -1.6066   0.0000   0.6560
  -3.000   0.5701   0.00840   0.00199  -0.2055  0.1703  0.0148  -1.3930   0.0000   0.6140
  -2.500   0.6286   0.00843   0.00201  -0.2060  0.1678  0.0154  -1.1174   0.0000   0.5801
  -2.000   0.6845   0.00870   0.00212  -0.2060  0.1326  0.0154  -0.9385   0.0000   0.5524
  -1.500   0.7424   0.00877   0.00217  -0.2064  0.1250  0.0159  -0.9867   0.0000   0.5285
  -1.000   0.8003   0.00884   0.00223  -0.2068  0.1234  0.0162  -1.0385   0.0000   0.5080
  -0.500   0.8578   0.00895   0.00232  -0.2071  0.1204  0.0165  -1.0904   0.0000   0.4903
   0.000   0.9132   0.00922   0.00250  -0.2070  0.1005  0.0168  -1.1412   0.0000   0.4748
   0.500   0.9696   0.00939   0.00261  -0.2072  0.0957  0.0176  -1.1931   0.0000   0.4611
   1.500   1.0819   0.00973   0.00295  -0.2073  0.0856  0.0248  -1.3256   0.0000   0.4376
   2.000   1.1381   0.00989   0.00314  -0.2074  0.0842  0.0371  -1.4007   0.0000   0.4276
   2.500   1.1897   0.01040   0.00354  -0.2067  0.0541  0.0451  -1.4820   0.0000   0.4183
   3.000   1.2442   0.01066   0.00382  -0.2065  0.0483  0.0695  -1.5791   0.0000   0.4099
   3.500   1.2974   0.01099   0.00413  -0.2061  0.0419  0.0840  -1.6974   0.0000   0.4021
   4.000   1.3513   0.01125   0.00441  -0.2059  0.0415  0.1036  -1.8228   0.0000   0.3948
   4.500   1.4047   0.01154   0.00473  -0.2056  0.0373  0.1456  -1.9973   0.0000   0.3881
   5.000   1.4557   0.01200   0.00520  -0.2050  0.0279  0.2046  -2.1772   0.0000   0.3817
   5.500   1.5097   0.01238   0.00576  -0.2051  0.0165  0.3679  -2.3448   0.0000   0.3760
   6.000   1.5571   0.01311   0.00660  -0.2039  0.0030  0.4609  -2.5331   0.0000   0.3703
   6.500   1.6058   0.01359   0.00711  -0.2028  0.0021  0.4933  -2.7163   0.0000   0.3648
   7.000   1.6531   0.01410   0.00766  -0.2015  0.0015  0.5251  -2.9015   0.0000   0.3595
   7.500   1.6978   0.01468   0.00824  -0.1996  0.0013  0.5397  -3.0865   0.0000   0.3544
   8.000   1.7376   0.01530   0.00889  -0.1969  0.0013  0.5577  -3.2661   0.0000   0.3492
   8.500   1.7715   0.01601   0.00963  -0.1930  0.0013  0.5678  -3.4374   0.0000   0.3440
   9.000   1.8066   0.01680   0.01051  -0.1895  0.0013  0.6209  -3.6138   0.0000   0.3391
   9.500   1.8397   0.01772   0.01151  -0.1859  0.0012  0.6578  -3.8389   0.0000   0.3343
  10.000   1.8706   0.01880   0.01266  -0.1821  0.0012  0.6901  -4.0711   0.0000   0.3296
  10.500   1.8989   0.02008   0.01402  -0.1781  0.0012  0.7151  -4.4569   0.0000   0.3251
  11.000   1.9257   0.02160   0.01563  -0.1742  0.0012  0.7499  -4.8969   0.0000   0.3208
  11.500   1.9501   0.02344   0.01763  -0.1703  0.0012  0.8034  -5.2936   0.0000   0.3166
  14.000   2.0444   0.03644   0.03117  -0.1533  0.0010  1.0000  -7.8203   0.0000   0.2987
  14.500   2.0580   0.03998   0.03478  -0.1504  0.0010  1.0000  -8.3282   0.0000   0.2957
  15.000   2.0662   0.04412   0.03902  -0.1476  0.0009  1.0000  -8.7969   0.0000   0.2928
  15.500   2.0727   0.04880   0.04379  -0.1452  0.0009  1.0000  -9.2635   0.0000   0.2901
  16.000   2.0749   0.05425   0.04937  -0.1430  0.0009  1.0000  -9.6788   0.0000   0.2877
  16.500   2.0760   0.06008   0.05530  -0.1414  0.0009  1.0000  -10.1189   0.0000   0.2856
  17.000   2.0760   0.06622   0.06156  -0.1402  0.0009  1.0000  -10.5615   0.0000   0.2836
  17.500   2.0739   0.07275   0.06821  -0.1393  0.0008  1.0000  -10.9934   0.0000   0.2819
  18.000   2.0735   0.07904   0.07460  -0.1388  0.0008  1.0000  -11.4473   0.0000   0.2803
  18.500   2.0629   0.08677   0.08246  -0.1387  0.0008  1.0000  -11.8101   0.0000   0.2792
  19.000   2.0514   0.09505   0.09088  -0.1394  0.0008  1.0000  -12.1624   0.0000   0.2784
  19.500   2.0386   0.10369   0.09966  -0.1406  0.0008  1.0000  -12.4982   0.0000   0.2779
  20.000   2.0269   0.11224   0.10834  -0.1423  0.0007  1.0000  -12.8703   0.0000   0.2776
  20.500   2.0225   0.11944   0.11564  -0.1439  0.0007  1.0000  -13.2944   0.0000   0.2770


