XFLR5 v6.02 Beta

 Calculated polar for: WORTMANN FX 63-137

 1 1 Reynolds number fixed          Mach number fixed         

 xtrf =   1.000 (top)        1.000 (bottom)
 Mach =   0.000     Re =    16.250 e 6     Ncrit =   9.000

  alpha     CL        CD       CDp       CM    Top Xtr Bot Xtr   Cpmin    Chinge    XCp    
 ------- -------- --------- --------- -------- ------- ------- -------- --------- ---------
 -20.000  -1.1100   0.04498   0.04205  -0.1540  0.7418  0.0032  -23.8025   0.0000   0.0789
 -19.500  -1.1260   0.03663   0.03353  -0.1615  0.7234  0.0032  -23.7685   0.0000   0.0761
 -18.500  -1.1169   0.02624   0.02282  -0.1703  0.6663  0.0033  -22.9134   0.0000   0.0699
 -18.000  -1.0993   0.02267   0.01918  -0.1729  0.6593  0.0033  -22.2619   0.0000   0.0663
 -17.500  -1.0769   0.01956   0.01600  -0.1755  0.6576  0.0034  -21.5447   0.0000   0.0618
 -17.000  -1.0349   0.01706   0.01336  -0.1803  0.6259  0.0034  -20.6003   0.0000   0.0513
 -16.500  -0.9842   0.01526   0.01131  -0.1852  0.5537  0.0035  -19.5603   0.0000   0.0379
 -16.000  -0.9317   0.01424   0.01019  -0.1871  0.5301  0.0035  -18.4876   0.0000   0.0257
 -15.500  -0.8781   0.01342   0.00928  -0.1885  0.5081  0.0036  -17.4233   0.0000   0.0122
 -15.000  -0.8233   0.01271   0.00846  -0.1898  0.4874  0.0036  -16.3696   0.0000  -0.0034
 -14.500  -0.7672   0.01207   0.00776  -0.1910  0.4704  0.0037  -15.3283   0.0000  -0.0217
 -14.000  -0.7098   0.01146   0.00710  -0.1922  0.4646  0.0037  -14.3049   0.0000  -0.0436
 -13.500  -0.6573   0.01121   0.00653  -0.1924  0.3486  0.0038  -13.3621   0.0000  -0.0656
 -13.000  -0.5991   0.01072   0.00600  -0.1935  0.3385  0.0038  -12.3872   0.0000  -0.0962
 -12.500  -0.5404   0.01028   0.00551  -0.1946  0.3370  0.0039  -11.4634   0.0000  -0.1340
 -12.000  -0.4826   0.00995   0.00508  -0.1954  0.3061  0.0039  -10.6018   0.0000  -0.1798
 -11.500  -0.4238   0.00963   0.00469  -0.1963  0.2980  0.0040  -9.7210   0.0000  -0.2394
 -11.000  -0.3647   0.00929   0.00430  -0.1973  0.2819  0.0041  -8.9057   0.0000  -0.3193
 -10.500  -0.3068   0.00909   0.00395  -0.1980  0.2304  0.0041  -8.1344   0.0000  -0.4265
 -10.000  -0.2470   0.00879   0.00360  -0.1990  0.2216  0.0042  -7.3851   0.0000  -0.5918
  -9.500  -0.1869   0.00850   0.00328  -0.2000  0.2201  0.0042  -6.6809   0.0000  -0.8643
  -9.000  -0.1279   0.00834   0.00301  -0.2007  0.1871  0.0043  -6.0543   0.0000  -1.3792
  -8.500  -0.0680   0.00814   0.00275  -0.2017  0.1782  0.0043  -5.4070   0.0000  -2.8210
  -8.000  -0.0079   0.00795   0.00253  -0.2026  0.1703  0.0044  -4.7879   0.0000  -26.3757
  -4.000   0.4691   0.00736   0.00175  -0.2082  0.1239  0.0045  -1.9486   0.0000   0.7002
  -3.500   0.5282   0.00736   0.00174  -0.2088  0.1234  0.0046  -1.6541   0.0000   0.6501
  -3.000   0.5858   0.00749   0.00179  -0.2090  0.1013  0.0078  -1.3767   0.0000   0.6104
  -2.500   0.6442   0.00754   0.00182  -0.2095  0.0976  0.0089  -1.1128   0.0000   0.5776
  -2.000   0.7025   0.00761   0.00185  -0.2099  0.0918  0.0091  -0.9498   0.0000   0.5503
  -1.500   0.7610   0.00765   0.00190  -0.2104  0.0885  0.0147  -0.9994   0.0000   0.5270
  -1.000   0.8189   0.00773   0.00196  -0.2108  0.0843  0.0153  -1.0514   0.0000   0.5071
  -0.500   0.8766   0.00782   0.00205  -0.2111  0.0837  0.0156  -1.1037   0.0000   0.4898
   0.000   0.9341   0.00792   0.00214  -0.2114  0.0829  0.0159  -1.1563   0.0000   0.4745
   0.500   0.9913   0.00804   0.00225  -0.2117  0.0820  0.0162  -1.2097   0.0000   0.4610
   1.000   1.0487   0.00813   0.00234  -0.2120  0.0832  0.0172  -1.2726   0.0000   0.4489
   1.500   1.1054   0.00826   0.00247  -0.2122  0.0824  0.0185  -1.3477   0.0000   0.4380
   2.000   1.1597   0.00860   0.00272  -0.2119  0.0637  0.0243  -1.4216   0.0000   0.4280
   2.500   1.2133   0.00897   0.00302  -0.2115  0.0373  0.0380  -1.5082   0.0000   0.4189
   3.000   1.2643   0.00954   0.00347  -0.2106  0.0041  0.0421  -1.6126   0.0000   0.4105
   3.500   1.3187   0.00981   0.00373  -0.2104  0.0034  0.0518  -1.7285   0.0000   0.4027
   4.000   1.3729   0.01006   0.00399  -0.2102  0.0040  0.0661  -1.8613   0.0000   0.3955
   4.500   1.4260   0.01038   0.00429  -0.2098  0.0032  0.0714  -2.0359   0.0000   0.3888
   5.000   1.4791   0.01069   0.00462  -0.2094  0.0025  0.1015  -2.2155   0.0000   0.3825
   5.500   1.5312   0.01103   0.00495  -0.2089  0.0017  0.1186  -2.3979   0.0000   0.3765
   6.000   1.5844   0.01134   0.00535  -0.2086  0.0013  0.2107  -2.5865   0.0000   0.3710
   6.500   1.6358   0.01170   0.00575  -0.2080  0.0013  0.2503  -2.7773   0.0000   0.3656
   7.000   1.6867   0.01209   0.00619  -0.2074  0.0012  0.3067  -2.9715   0.0000   0.3606
   7.500   1.7373   0.01248   0.00667  -0.2068  0.0012  0.3879  -3.1696   0.0000   0.3558
   8.000   1.7821   0.01303   0.00713  -0.2048  0.0012  0.3262  -3.3615   0.0000   0.3508
   8.500   1.8312   0.01348   0.00771  -0.2040  0.0012  0.4356  -3.5649   0.0000   0.3464
   9.000   1.8754   0.01404   0.00830  -0.2022  0.0012  0.4640  -3.7980   0.0000   0.3418
   9.500   1.9120   0.01465   0.00895  -0.1988  0.0012  0.4943  -4.0477   0.0000   0.3371
  10.000   1.9449   0.01534   0.00970  -0.1948  0.0011  0.5310  -4.4667   0.0000   0.3323
  10.500   1.9759   0.01617   0.01055  -0.1906  0.0011  0.5436  -4.9656   0.0000   0.3277
  11.000   2.0072   0.01711   0.01154  -0.1867  0.0011  0.5696  -5.4879   0.0000   0.3232
  11.500   2.0361   0.01821   0.01271  -0.1826  0.0011  0.6141  -6.0170   0.0000   0.3189
  12.000   2.0638   0.01949   0.01405  -0.1786  0.0011  0.6462  -6.5586   0.0000   0.3147
  12.500   2.0907   0.02096   0.01560  -0.1749  0.0010  0.6873  -7.1313   0.0000   0.3108
  13.000   2.1144   0.02266   0.01735  -0.1709  0.0010  0.7111  -7.6902   0.0000   0.3069
  13.500   2.1361   0.02464   0.01941  -0.1671  0.0009  0.7496  -8.2527   0.0000   0.3031
  14.000   2.1575   0.02693   0.02182  -0.1637  0.0009  0.8108  -8.8306   0.0000   0.2996
  14.500   2.1808   0.02947   0.02463  -0.1613  0.0009  1.0000  -9.4392   0.0000   0.2965
  15.000   2.1965   0.03242   0.02762  -0.1579  0.0009  1.0000  -10.0053   0.0000   0.2932
  15.500   2.2094   0.03579   0.03105  -0.1547  0.0008  1.0000  -10.5644   0.0000   0.2901
  16.000   2.2219   0.03931   0.03463  -0.1518  0.0008  1.0000  -11.1340   0.0000   0.2872
  16.500   2.2288   0.04350   0.03888  -0.1489  0.0008  1.0000  -11.6694   0.0000   0.2844
  17.000   2.2340   0.04823   0.04368  -0.1464  0.0008  1.0000  -12.2010   0.0000   0.2818
  17.500   2.2369   0.05349   0.04902  -0.1443  0.0008  1.0000  -12.7204   0.0000   0.2794
  18.000   2.2369   0.05932   0.05494  -0.1426  0.0007  1.0000  -13.2234   0.0000   0.2772
  18.500   2.2441   0.06425   0.05993  -0.1412  0.0007  1.0000  -13.8031   0.0000   0.2750
  19.000   2.2392   0.07095   0.06673  -0.1403  0.0007  1.0000  -14.2734   0.0000   0.2732
  19.500   2.2311   0.07818   0.07405  -0.1397  0.0007  1.0000  -14.7160   0.0000   0.2717
  20.000   2.2178   0.08594   0.08193  -0.1396  0.0006  1.0000  -15.1088   0.0000   0.2705


