xflr5 v6.59

 Calculated polar for: WORTMANN FX 63-137 AIRFOIL

 1 1 Reynolds number fixed          Mach number fixed         

 xtrf =   1.000 (top)        1.000 (bottom)
 Mach =   0.000     Re =     1.000 e 6     Ncrit =   9.000

  alpha     CL        CD       CDp       Cm    Top Xtr Bot Xtr   Cpmin    Chinge    XCp    
 ------- -------- --------- --------- -------- ------- ------- -------- --------- ---------
 -19.500  -0.4129   0.22158   0.21961  -0.0194  1.0000  0.0049  -1.8231   0.0000   0.0000   0.0000   0.1720
 -19.400  -0.4103   0.22043   0.21847  -0.0199  1.0000  0.0050  -1.8237   0.0000   0.0000   0.0000   0.1705
 -19.300  -0.4076   0.21932   0.21736  -0.0204  1.0000  0.0050  -1.8192   0.0000   0.0000   0.0000   0.1690
 -19.200  -0.4048   0.21820   0.21624  -0.0209  1.0000  0.0051  -1.8123   0.0000   0.0000   0.0000   0.1675
 -19.100  -0.4021   0.21706   0.21510  -0.0213  1.0000  0.0051  -1.8040   0.0000   0.0000   0.0000   0.1660
 -19.000  -0.3993   0.21592   0.21397  -0.0218  1.0000  0.0052  -1.7949   0.0000   0.0000   0.0000   0.1645
 -18.900  -0.3965   0.21482   0.21287  -0.0223  1.0000  0.0052  -1.7816   0.0000   0.0000   0.0000   0.1629
 -18.800  -0.3936   0.21373   0.21178  -0.0227  1.0000  0.0052  -1.7680   0.0000   0.0000   0.0000   0.1614
 -18.700  -0.3908   0.21264   0.21069  -0.0232  1.0000  0.0053  -1.7544   0.0000   0.0000   0.0000   0.1599
 -18.600  -0.3879   0.21155   0.20961  -0.0236  1.0000  0.0053  -1.7411   0.0000   0.0000   0.0000   0.1583
 -18.500  -0.3851   0.21045   0.20852  -0.0241  1.0000  0.0053  -1.7280   0.0000   0.0000   0.0000   0.1568
 -18.400  -0.3823   0.20936   0.20743  -0.0245  1.0000  0.0054  -1.7152   0.0000   0.0000   0.0000   0.1552
 -18.300  -0.3795   0.20826   0.20633  -0.0249  1.0000  0.0054  -1.7026   0.0000   0.0000   0.0000   0.1536
 -18.200  -0.3767   0.20717   0.20524  -0.0254  1.0000  0.0055  -1.6905   0.0000   0.0000   0.0000   0.1520
 -18.100  -0.3740   0.20607   0.20414  -0.0258  1.0000  0.0055  -1.6786   0.0000   0.0000   0.0000   0.1503
 -18.000  -0.3712   0.20496   0.20304  -0.0262  1.0000  0.0056  -1.6672   0.0000   0.0000   0.0000   0.1487
 -17.900  -0.3685   0.20386   0.20194  -0.0266  1.0000  0.0056  -1.6561   0.0000   0.0000   0.0000   0.1471
 -17.800  -0.3657   0.20275   0.20083  -0.0270  1.0000  0.0056  -1.6454   0.0000   0.0000   0.0000   0.1454
 -17.700  -0.3630   0.20163   0.19972  -0.0274  1.0000  0.0057  -1.6351   0.0000   0.0000   0.0000   0.1437
 -17.600  -0.3603   0.20052   0.19861  -0.0278  1.0000  0.0057  -1.6253   0.0000   0.0000   0.0000   0.1421
 -17.500  -0.3576   0.19940   0.19749  -0.0282  1.0000  0.0058  -1.6158   0.0000   0.0000   0.0000   0.1404
 -17.400  -0.3550   0.19827   0.19637  -0.0286  1.0000  0.0058  -1.6068   0.0000   0.0000   0.0000   0.1387
 -17.300  -0.3523   0.19714   0.19524  -0.0290  1.0000  0.0059  -1.5982   0.0000   0.0000   0.0000   0.1369
 -17.200  -0.3497   0.19601   0.19412  -0.0294  1.0000  0.0060  -1.5900   0.0000   0.0000   0.0000   0.1352
 -17.100  -0.3471   0.19487   0.19298  -0.0298  1.0000  0.0060  -1.5823   0.0000   0.0000   0.0000   0.1335
 -17.000  -0.3445   0.19373   0.19185  -0.0302  1.0000  0.0061  -1.5750   0.0000   0.0000   0.0000   0.1317
 -16.900  -0.3419   0.19259   0.19071  -0.0306  1.0000  0.0061  -1.5681   0.0000   0.0000   0.0000   0.1300
 -16.800  -0.3394   0.19144   0.18956  -0.0309  1.0000  0.0062  -1.5616   0.0000   0.0000   0.0000   0.1282
 -16.700  -0.3369   0.19029   0.18841  -0.0313  1.0000  0.0063  -1.5556   0.0000   0.0000   0.0000   0.1265
 -16.600  -0.3344   0.18913   0.18726  -0.0317  1.0000  0.0063  -1.5501   0.0000   0.0000   0.0000   0.1247
 -16.500  -0.3319   0.18797   0.18611  -0.0320  1.0000  0.0064  -1.5449   0.0000   0.0000   0.0000   0.1229
 -16.400  -0.3295   0.18681   0.18495  -0.0323  1.0000  0.0065  -1.5403   0.0000   0.0000   0.0000   0.1212
 -16.300  -0.3271   0.18564   0.18378  -0.0327  1.0000  0.0066  -1.5361   0.0000   0.0000   0.0000   0.1194
 -16.200  -0.3247   0.18447   0.18262  -0.0330  1.0000  0.0067  -1.5325   0.0000   0.0000   0.0000   0.1177
 -16.100  -0.3223   0.18330   0.18145  -0.0333  1.0000  0.0067  -1.5293   0.0000   0.0000   0.0000   0.1159
 -16.000  -0.3200   0.18212   0.18027  -0.0337  1.0000  0.0068  -1.5268   0.0000   0.0000   0.0000   0.1142
 -15.900  -0.3178   0.18094   0.17909  -0.0340  1.0000  0.0069  -1.5248   0.0000   0.0000   0.0000   0.1125
 -15.800  -0.3155   0.17975   0.17791  -0.0343  1.0000  0.0070  -1.5234   0.0000   0.0000   0.0000   0.1107
 -15.700  -0.3133   0.17855   0.17672  -0.0346  1.0000  0.0071  -1.5229   0.0000   0.0000   0.0000   0.1090
 -15.600  -0.3112   0.17734   0.17549  -0.0349  1.0000  0.0072  -1.5244   0.0000   0.0000   0.0000   0.1073
 -15.500  -0.3090   0.17614   0.17430  -0.0352  1.0000  0.0074  -1.5250   0.0000   0.0000   0.0000   0.1056
 -15.400  -0.3070   0.17493   0.17309  -0.0354  1.0000  0.0075  -1.5265   0.0000   0.0000   0.0000   0.1039
 -15.300  -0.3049   0.17371   0.17188  -0.0357  1.0000  0.0076  -1.5291   0.0000   0.0000   0.0000   0.1022
 -15.200  -0.3029   0.17248   0.17065  -0.0360  1.0000  0.0078  -1.5330   0.0000   0.0000   0.0000   0.1006
 -15.100  -0.3010   0.17123   0.16941  -0.0363  1.0000  0.0079  -1.5387   0.0000   0.0000   0.0000   0.0989
 -15.000  -0.2991   0.16996   0.16814  -0.0365  1.0000  0.0081  -1.5469   0.0000   0.0000   0.0000   0.0973
 -14.900  -0.2973   0.16865   0.16684  -0.0368  1.0000  0.0084  -1.5595   0.0000   0.0000   0.0000   0.0957
 -14.800  -0.2957   0.16726   0.16545  -0.0371  1.0000  0.0086  -1.5816   0.0000   0.0000   0.0000   0.0940
 -14.700  -0.2945   0.16545   0.16365  -0.0378  1.0000  0.0094  -1.6720   0.0000   0.0000   0.0000   0.0911
 -14.600  -0.2920   0.16456   0.16276  -0.0382  1.0000  0.0097  -1.6831   0.0000   0.0000   0.0000   0.0884
 -14.500  -0.2901   0.16351   0.16172  -0.0385  1.0000  0.0097  -1.6886   0.0000   0.0000   0.0000   0.0866
 -14.400  -0.2884   0.16240   0.16061  -0.0387  1.0000  0.0098  -1.6957   0.0000   0.0000   0.0000   0.0851
 -14.300  -0.2869   0.16125   0.15948  -0.0389  1.0000  0.0098  -1.7044   0.0000   0.0000   0.0000   0.0837
 -14.200  -0.2855   0.16009   0.15832  -0.0391  1.0000  0.0098  -1.7141   0.0000   0.0000   0.0000   0.0824
 -13.800  -0.2673   0.15349   0.15172  -0.0441  0.9992  0.0099  -1.7615   0.0000   0.0000   0.0000   0.0527
 -13.700  -0.2620   0.15168   0.14991  -0.0456  0.9989  0.0099  -1.7761   0.0000   0.0000   0.0000   0.0432
 -13.600  -0.2568   0.14983   0.14806  -0.0471  0.9986  0.0099  -1.7916   0.0000   0.0000   0.0000   0.0332
 -13.500  -0.2515   0.14796   0.14618  -0.0486  0.9983  0.0099  -1.8084   0.0000   0.0000   0.0000   0.0228
 -13.400  -0.2463   0.14607   0.14430  -0.0502  0.9979  0.0099  -1.8267   0.0000   0.0000   0.0000   0.0119
 -13.300  -0.2507   0.14230   0.14053  -0.0508  0.9977  0.0108  -1.9297   0.0000   0.0000   0.0000   0.0133
 -13.200  -0.2437   0.14099   0.13922  -0.0522  0.9973  0.0109  -1.8889   0.0000   0.0000   0.0000   0.0012
 -13.100  -0.2368   0.13966   0.13789  -0.0536  0.9969  0.0111  -1.8509   0.0000   0.0000   0.0000  -0.0118
 -13.000  -0.2298   0.13830   0.13652  -0.0550  0.9965  0.0112  -1.8158   0.0000   0.0000   0.0000  -0.0257
 -12.900  -0.2229   0.13691   0.13513  -0.0565  0.9962  0.0113  -1.7837   0.0000   0.0000   0.0000  -0.0408
 -12.800  -0.2159   0.13548   0.13370  -0.0581  0.9958  0.0115  -1.7547   0.0000   0.0000   0.0000  -0.0570
 -12.700  -0.2095   0.13404   0.13226  -0.0595  0.9951  0.0116  -1.7301   0.0000   0.0000   0.0000  -0.0728
 -12.600  -0.2032   0.13256   0.13078  -0.0609  0.9944  0.0118  -1.7096   0.0000   0.0000   0.0000  -0.0895
 -12.500  -0.1969   0.13103   0.12925  -0.0623  0.9936  0.0120  -1.6939   0.0000   0.0000   0.0000  -0.1077
 -12.400  -0.1906   0.12943   0.12764  -0.0638  0.9928  0.0122  -1.6851   0.0000   0.0000   0.0000  -0.1271
 -12.300  -0.1848   0.12771   0.12592  -0.0654  0.9920  0.0124  -1.6890   0.0000   0.0000   0.0000  -0.1473
 -12.200  -0.6061   0.02967   0.02676  -0.1358  0.9637  0.0079  -10.2698   0.0000   0.0000   0.0000   0.0053
 -12.100  -0.5992   0.02752   0.02450  -0.1400  0.9583  0.0079  -10.2197   0.0000   0.0000   0.0000  -0.0042
 -12.000  -0.5880   0.02550   0.02236  -0.1447  0.9535  0.0079  -10.1327   0.0000   0.0000   0.0000  -0.0167
 -11.900  -0.5714   0.02359   0.02032  -0.1502  0.9508  0.0079  -10.0021   0.0000   0.0000   0.0000  -0.0337
 -11.800  -0.5518   0.02192   0.01851  -0.1557  0.9490  0.0079  -9.8429   0.0000   0.0000   0.0000  -0.0533
 -11.700  -0.5344   0.02064   0.01710  -0.1598  0.9455  0.0079  -9.6863   0.0000   0.0000   0.0000  -0.0705
 -11.600  -0.5170   0.01965   0.01600  -0.1631  0.9421  0.0079  -9.5207   0.0000   0.0000   0.0000  -0.0873
 -11.500  -0.4985   0.01882   0.01506  -0.1662  0.9395  0.0079  -9.3427   0.0000   0.0000   0.0000  -0.1056
 -11.400  -0.4788   0.01808   0.01420  -0.1692  0.9373  0.0079  -9.1555   0.0000   0.0000   0.0000  -0.1262
 -11.300  -0.4579   0.01738   0.01341  -0.1724  0.9353  0.0079  -8.9581   0.0000   0.0000   0.0000  -0.1500
 -11.200  -0.4367   0.01676   0.01268  -0.1755  0.9332  0.0079  -8.7577   0.0000   0.0000   0.0000  -0.1761
 -11.100  -0.4186   0.01624   0.01208  -0.1777  0.9287  0.0079  -8.5770   0.0000   0.0000   0.0000  -0.1994
 -11.000  -0.4000   0.01577   0.01151  -0.1800  0.9239  0.0079  -8.3924   0.0000   0.0000   0.0000  -0.2257
 -10.900  -0.3810   0.01533   0.01098  -0.1822  0.9191  0.0079  -8.2059   0.0000   0.0000   0.0000  -0.2549
 -10.800  -0.3635   0.01495   0.01051  -0.1841  0.9139  0.0079  -8.0287   0.0000   0.0000   0.0000  -0.2840
 -10.700  -0.3489   0.01463   0.01011  -0.1853  0.9068  0.0079  -7.8702   0.0000   0.0000   0.0000  -0.3094
 -10.600  -0.3338   0.01433   0.00972  -0.1866  0.9000  0.0078  -7.7088   0.0000   0.0000   0.0000  -0.3380
 -10.500  -0.3199   0.01407   0.00938  -0.1875  0.8937  0.0078  -7.5560   0.0000   0.0000   0.0000  -0.3660
 -10.400  -0.3074   0.01383   0.00907  -0.1881  0.8873  0.0078  -7.4117   0.0000   0.0000   0.0000  -0.3927
 -10.300  -0.2947   0.01361   0.00878  -0.1888  0.8812  0.0078  -7.2673   0.0000   0.0000   0.0000  -0.4220
 -10.200  -0.2822   0.01341   0.00850  -0.1893  0.8756  0.0078  -7.1243   0.0000   0.0000   0.0000  -0.4533
 -10.100  -0.2708   0.01320   0.00825  -0.1897  0.8707  0.0078  -6.9883   0.0000   0.0000   0.0000  -0.4838
 -10.000  -0.2592   0.01301   0.00801  -0.1900  0.8653  0.0078  -6.8711   0.0000   0.0000   0.0000  -0.5175
  -9.900  -0.2475   0.01283   0.00778  -0.1904  0.8596  0.0078  -6.7535   0.0000   0.0000   0.0000  -0.5547
  -9.800  -0.2358   0.01267   0.00756  -0.1907  0.8539  0.0078  -6.6359   0.0000   0.0000   0.0000  -0.5953
  -9.700  -0.2243   0.01249   0.00737  -0.1910  0.8494  0.0079  -6.5187   0.0000   0.0000   0.0000  -0.6396
  -9.600  -0.2128   0.01233   0.00718  -0.1913  0.8445  0.0079  -6.4019   0.0000   0.0000   0.0000  -0.6883
  -9.500  -0.2014   0.01219   0.00700  -0.1915  0.8394  0.0079  -6.2865   0.0000   0.0000   0.0000  -0.7420
  -9.400  -0.1901   0.01206   0.00682  -0.1917  0.8341  0.0080  -6.1731   0.0000   0.0000   0.0000  -0.8012
  -9.300  -0.1788   0.01194   0.00662  -0.1919  0.8288  0.0080  -6.0622   0.0000   0.0000   0.0000  -0.8679
  -9.200  -0.1675   0.01192   0.00642  -0.1919  0.8248  0.0091  -5.9561   0.0000   0.0000   0.0000  -0.9426
  -9.100  -0.1559   0.01174   0.00629  -0.1922  0.8200  0.0092  -5.8379   0.0000   0.0000   0.0000  -1.0323
  -9.000  -0.1446   0.01160   0.00618  -0.1924  0.8146  0.0092  -5.7198   0.0000   0.0000   0.0000  -1.1336
  -8.900  -0.1336   0.01152   0.00612  -0.1925  0.8088  0.0093  -5.6015   0.0000   0.0000   0.0000  -1.2477
  -8.800  -0.1227   0.01148   0.00611  -0.1925  0.8034  0.0093  -5.4812   0.0000   0.0000   0.0000  -1.3792
  -8.700  -0.1118   0.01151   0.00621  -0.1925  0.7993  0.0094  -5.3535   0.0000   0.0000   0.0000  -1.5368
  -8.600  -0.1009   0.01154   0.00629  -0.1924  0.7948  0.0094  -5.2311   0.0000   0.0000   0.0000  -1.7273
  -8.500  -0.0901   0.01158   0.00635  -0.1923  0.7901  0.0095  -5.1127   0.0000   0.0000   0.0000  -1.9616
  -8.400  -0.0794   0.01159   0.00636  -0.1922  0.7852  0.0095  -4.9996   0.0000   0.0000   0.0000  -2.2588
  -8.300  -0.0687   0.01161   0.00636  -0.1921  0.7801  0.0096  -4.8891   0.0000   0.0000   0.0000  -2.6471
  -8.200  -0.0574   0.01160   0.00635  -0.1921  0.7765  0.0096  -4.7780   0.0000   0.0000   0.0000  -3.2123
  -8.100  -0.0460   0.01157   0.00633  -0.1922  0.7738  0.0096  -4.6673   0.0000   0.0000   0.0000  -4.0772
  -8.000  -0.0345   0.01155   0.00631  -0.1923  0.7706  0.0096  -4.5585   0.0000   0.0000   0.0000  -5.5130
  -7.900  -0.0230   0.01150   0.00625  -0.1924  0.7671  0.0096  -4.4534   0.0000   0.0000   0.0000  -8.4007
  -7.800  -0.0115   0.01144   0.00617  -0.1926  0.7636  0.0096  -4.3505   0.0000   0.0000   0.0000  -17.0748
  -7.700  -0.0001   0.01139   0.00609  -0.1927  0.7599  0.0096  -4.2490   0.0000   0.0000   0.0000  -3835.2676
  -7.600   0.0114   0.01132   0.00597  -0.1928  0.7562  0.0096  -4.1507   0.0000   0.0000   0.0000  17.7137
  -7.500   0.0226   0.01129   0.00578  -0.1928  0.7520  0.0093  -4.0608   0.0000   0.0000   0.0000   9.0548
  -7.300   0.0468   0.01094   0.00557  -0.1935  0.7458  0.0100  -3.8586   0.0000   0.0000   0.0000   4.5124
  -7.200   0.0587   0.01084   0.00543  -0.1938  0.7425  0.0100  -3.7638   0.0000   0.0000   0.0000   3.6487
  -6.800   0.1037   0.01084   0.00515  -0.1938  0.7289  0.0095  -3.3862   0.0000   0.0000   0.0000   2.1699
  -6.700   0.1150   0.01078   0.00505  -0.1939  0.7246  0.0095  -3.2961   0.0000   0.0000   0.0000   1.9811
  -6.600   0.1266   0.01072   0.00496  -0.1940  0.7207  0.0096  -3.2062   0.0000   0.0000   0.0000   1.8231
  -6.500   0.1388   0.01063   0.00486  -0.1943  0.7188  0.0096  -3.1155   0.0000   0.0000   0.0000   1.6868
  -6.400   0.1509   0.01053   0.00475  -0.1945  0.7163  0.0096  -3.0263   0.0000   0.0000   0.0000   1.5724
  -6.300   0.1630   0.01043   0.00464  -0.1948  0.7132  0.0096  -2.9387   0.0000   0.0000   0.0000   1.4752
  -6.200   0.1751   0.01033   0.00452  -0.1951  0.7096  0.0097  -2.8528   0.0000   0.0000   0.0000   1.3914
  -6.100   0.1873   0.01022   0.00439  -0.1953  0.7059  0.0097  -2.7685   0.0000   0.0000   0.0000   1.3184
  -6.000   0.1995   0.01010   0.00425  -0.1956  0.7022  0.0097  -2.6910   0.0000   0.0000   0.0000   1.2542
  -5.900   0.2117   0.00998   0.00410  -0.1959  0.6986  0.0098  -2.6434   0.0000   0.0000   0.0000   1.1972
  -5.800   0.2240   0.00985   0.00394  -0.1963  0.6948  0.0098  -2.6007   0.0000   0.0000   0.0000   1.1463
  -5.700   0.2365   0.00970   0.00376  -0.1966  0.6911  0.0099  -2.5636   0.0000   0.0000   0.0000   1.1003
  -5.600   0.2497   0.00952   0.00356  -0.1972  0.6889  0.0099  -2.5325   0.0000   0.0000   0.0000   1.0571
  -5.500   0.2680   0.00886   0.00248  -0.1989  0.6865  0.0114  -2.7738   0.0000   0.0000   0.0000   1.0080
  -5.400   0.2800   0.00883   0.00244  -0.1990  0.6839  0.0116  -2.7129   0.0000   0.0000   0.0000   0.9759
  -5.300   0.2919   0.00880   0.00239  -0.1992  0.6812  0.0119  -2.6513   0.0000   0.0000   0.0000   0.9466
  -5.200   0.3037   0.00877   0.00236  -0.1993  0.6784  0.0122  -2.5887   0.0000   0.0000   0.0000   0.9196
  -5.100   0.3154   0.00875   0.00232  -0.1994  0.6755  0.0126  -2.5255   0.0000   0.0000   0.0000   0.8948
  -5.000   0.3271   0.00873   0.00229  -0.1995  0.6724  0.0129  -2.4613   0.0000   0.0000   0.0000   0.8719
  -4.900   0.3386   0.00873   0.00227  -0.1996  0.6691  0.0133  -2.3950   0.0000   0.0000   0.0000   0.8507
  -4.800   0.3500   0.00873   0.00227  -0.1997  0.6656  0.0137  -2.3249   0.0000   0.0000   0.0000   0.8310
  -4.700   0.3613   0.00874   0.00228  -0.1997  0.6620  0.0143  -2.2474   0.0000   0.0000   0.0000   0.8127
  -4.600   0.3725   0.00876   0.00233  -0.1997  0.6599  0.0150  -2.1567   0.0000   0.0000   0.0000   0.7954
  -4.500   0.3835   0.00882   0.00244  -0.1996  0.6584  0.0157  -2.0523   0.0000   0.0000   0.0000   0.7794
  -4.400   0.3937   0.00894   0.00265  -0.1994  0.6566  0.0164  -1.9254   0.0000   0.0000   0.0000   0.7649
  -4.300   0.4038   0.00906   0.00287  -0.1991  0.6544  0.0169  -1.8165   0.0000   0.0000   0.0000   0.7511
  -4.200   0.4118   0.00938   0.00333  -0.1983  0.6517  0.0178  -1.6969   0.0000   0.0000   0.0000   0.7391
  -4.100   0.4255   0.00918   0.00307  -0.1990  0.6482  0.0184  -1.6622   0.0000   0.0000   0.0000   0.7248
  -4.000   0.4382   0.00907   0.00292  -0.1994  0.6440  0.0189  -1.6206   0.0000   0.0000   0.0000   0.7117
  -3.900   0.4505   0.00900   0.00280  -0.1997  0.6391  0.0193  -1.5766   0.0000   0.0000   0.0000   0.6996
  -3.800   0.4624   0.00895   0.00271  -0.1998  0.6339  0.0196  -1.5318   0.0000   0.0000   0.0000   0.6882
  -3.700   0.4741   0.00892   0.00263  -0.2000  0.6289  0.0199  -1.4863   0.0000   0.0000   0.0000   0.6775
  -3.600   0.4863   0.00887   0.00256  -0.2002  0.6257  0.0202  -1.4396   0.0000   0.0000   0.0000   0.6670
  -3.500   0.4985   0.00883   0.00249  -0.2005  0.6223  0.0204  -1.3930   0.0000   0.0000   0.0000   0.6571
  -3.400   0.5105   0.00879   0.00243  -0.2006  0.6187  0.0206  -1.3466   0.0000   0.0000   0.0000   0.6477
  -3.300   0.5224   0.00876   0.00237  -0.2008  0.6149  0.0208  -1.3006   0.0000   0.0000   0.0000   0.6388
  -3.200   0.5342   0.00874   0.00232  -0.2010  0.6109  0.0210  -1.2551   0.0000   0.0000   0.0000   0.6303
  -3.100   0.5459   0.00873   0.00227  -0.2011  0.6068  0.0211  -1.2100   0.0000   0.0000   0.0000   0.6222
  -3.000   0.5576   0.00872   0.00223  -0.2012  0.6024  0.0212  -1.1653   0.0000   0.0000   0.0000   0.6144
  -2.900   0.5693   0.00871   0.00218  -0.2013  0.5981  0.0214  -1.1207   0.0000   0.0000   0.0000   0.6069
  -2.800   0.5815   0.00868   0.00214  -0.2015  0.5961  0.0218  -1.0752   0.0000   0.0000   0.0000   0.5997
  -2.700   0.5936   0.00864   0.00210  -0.2017  0.5940  0.0222  -1.0296   0.0000   0.0000   0.0000   0.5927
  -2.600   0.6057   0.00861   0.00206  -0.2019  0.5913  0.0227  -0.9845   0.0000   0.0000   0.0000   0.5860
  -2.500   0.6177   0.00860   0.00202  -0.2021  0.5875  0.0229  -0.9404   0.0000   0.0000   0.0000   0.5796
  -2.400   0.6294   0.00859   0.00198  -0.2022  0.5819  0.0226  -0.8978   0.0000   0.0000   0.0000   0.5734
  -2.300   0.6408   0.00861   0.00193  -0.2022  0.5748  0.0210  -0.8984   0.0000   0.0000   0.0000   0.5676
  -2.200   0.6517   0.00866   0.00191  -0.2022  0.5668  0.0215  -0.9066   0.0000   0.0000   0.0000   0.5620
  -2.100   0.6632   0.00867   0.00189  -0.2022  0.5616  0.0222  -0.9151   0.0000   0.0000   0.0000   0.5565
  -2.000   0.6748   0.00868   0.00188  -0.2023  0.5570  0.0228  -0.9237   0.0000   0.0000   0.0000   0.5512
  -1.900   0.6863   0.00869   0.00186  -0.2024  0.5523  0.0232  -0.9322   0.0000   0.0000   0.0000   0.5461
  -1.800   0.6977   0.00871   0.00185  -0.2025  0.5473  0.0235  -0.9407   0.0000   0.0000   0.0000   0.5412
  -1.700   0.7089   0.00875   0.00184  -0.2025  0.5421  0.0236  -0.9491   0.0000   0.0000   0.0000   0.5364
  -1.600   0.7201   0.00878   0.00183  -0.2025  0.5366  0.0235  -0.9585   0.0000   0.0000   0.0000   0.5318
  -1.500   0.7316   0.00880   0.00182  -0.2025  0.5323  0.0233  -0.9685   0.0000   0.0000   0.0000   0.5273
  -1.400   0.7435   0.00879   0.00180  -0.2027  0.5304  0.0232  -0.9789   0.0000   0.0000   0.0000   0.5229
  -1.300   0.7553   0.00878   0.00179  -0.2028  0.5278  0.0231  -0.9891   0.0000   0.0000   0.0000   0.5186
  -1.200   0.7670   0.00879   0.00178  -0.2029  0.5241  0.0230  -0.9994   0.0000   0.0000   0.0000   0.5145
  -1.100   0.7785   0.00881   0.00178  -0.2030  0.5182  0.0229  -1.0095   0.0000   0.0000   0.0000   0.5105
  -1.000   0.7894   0.00887   0.00179  -0.2029  0.5091  0.0228  -1.0193   0.0000   0.0000   0.0000   0.5067
  -0.900   0.7999   0.00895   0.00181  -0.2028  0.4996  0.0227  -1.0289   0.0000   0.0000   0.0000   0.5030
  -0.800   0.8111   0.00899   0.00182  -0.2028  0.4939  0.0226  -1.0388   0.0000   0.0000   0.0000   0.4994
  -0.700   0.8221   0.00904   0.00184  -0.2028  0.4873  0.0226  -1.0487   0.0000   0.0000   0.0000   0.4958
  -0.600   0.8329   0.00912   0.00186  -0.2027  0.4798  0.0225  -1.0585   0.0000   0.0000   0.0000   0.4924
  -0.500   0.8434   0.00921   0.00189  -0.2026  0.4708  0.0225  -1.0681   0.0000   0.0000   0.0000   0.4891
  -0.400   0.8547   0.00924   0.00191  -0.2027  0.4653  0.0225  -1.0781   0.0000   0.0000   0.0000   0.4858
  -0.300   0.8659   0.00928   0.00192  -0.2027  0.4598  0.0225  -1.0882   0.0000   0.0000   0.0000   0.4826
  -0.200   0.8762   0.00938   0.00196  -0.2025  0.4454  0.0225  -1.0978   0.0000   0.0000   0.0000   0.4795
  -0.100   0.8857   0.00955   0.00203  -0.2022  0.4296  0.0226  -1.1068   0.0000   0.0000   0.0000   0.4766
   0.000   0.8960   0.00965   0.00206  -0.2021  0.4209  0.0259  -1.1163   0.0000   0.0000   0.0000   0.4736
   0.200   0.9146   0.00998   0.00214  -0.2013  0.4021  0.0250  -1.1343   0.0000   0.0000   0.0000   0.4679
   0.300   0.9268   0.00996   0.00218  -0.2015  0.3974  0.0253  -1.1450   0.0000   0.0000   0.0000   0.4651
   0.400   0.9384   0.00999   0.00224  -0.2017  0.3863  0.0257  -1.1554   0.0000   0.0000   0.0000   0.4625
   0.500   0.9477   0.01020   0.00240  -0.2015  0.3641  0.0263  -1.1644   0.0000   0.0000   0.0000   0.4599
   0.600   0.9583   0.01029   0.00251  -0.2014  0.3559  0.0340  -1.1742   0.0000   0.0000   0.0000   0.4574
   0.700   0.9689   0.01038   0.00257  -0.2013  0.3497  0.0359  -1.1844   0.0000   0.0000   0.0000   0.4548
   0.800   0.9795   0.01046   0.00263  -0.2012  0.3431  0.0379  -1.1960   0.0000   0.0000   0.0000   0.4524
   0.900   0.9905   0.01051   0.00267  -0.2012  0.3387  0.0407  -1.2079   0.0000   0.0000   0.0000   0.4499
   1.000   1.0019   0.01053   0.00271  -0.2013  0.3372  0.0489  -1.2201   0.0000   0.0000   0.0000   0.4475
   1.100   1.0133   0.01055   0.00276  -0.2013  0.3346  0.0514  -1.2323   0.0000   0.0000   0.0000   0.4452
   1.200   1.0246   0.01059   0.00280  -0.2014  0.3302  0.0633  -1.2445   0.0000   0.0000   0.0000   0.4429
   1.300   1.0349   0.01069   0.00287  -0.2013  0.3193  0.0663  -1.2565   0.0000   0.0000   0.0000   0.4407
   1.400   1.0439   0.01090   0.00299  -0.2009  0.3044  0.0695  -1.2693   0.0000   0.0000   0.0000   0.4386
   1.500   1.0544   0.01099   0.00306  -0.2008  0.2978  0.0764  -1.2831   0.0000   0.0000   0.0000   0.4364
   1.600   1.0647   0.01109   0.00314  -0.2007  0.2911  0.0827  -1.2969   0.0000   0.0000   0.0000   0.4344
   1.700   1.0753   0.01119   0.00322  -0.2007  0.2837  0.1001  -1.3109   0.0000   0.0000   0.0000   0.4323
   1.800   1.0861   0.01125   0.00328  -0.2006  0.2784  0.1082  -1.3251   0.0000   0.0000   0.0000   0.4303
   1.900   1.0977   0.01127   0.00333  -0.2008  0.2761  0.1231  -1.3400   0.0000   0.0000   0.0000   0.4283
   2.000   1.1101   0.01125   0.00339  -0.2012  0.2723  0.1679  -1.3555   0.0000   0.0000   0.0000   0.4265
   2.100   1.1253   0.01114   0.00350  -0.2025  0.2582  0.3041  -1.3730   0.0000   0.0000   0.0000   0.4250
   2.200   1.1385   0.01115   0.00371  -0.2033  0.2451  0.4179  -1.3891   0.0000   0.0000   0.0000   0.4236
   2.300   1.1498   0.01122   0.00386  -0.2035  0.2394  0.4621  -1.4039   0.0000   0.0000   0.0000   0.4218
   2.400   1.1597   0.01135   0.00396  -0.2033  0.2334  0.4687  -1.4177   0.0000   0.0000   0.0000   0.4200
   2.500   1.1700   0.01146   0.00407  -0.2032  0.2269  0.4781  -1.4334   0.0000   0.0000   0.0000   0.4182
   2.600   1.1805   0.01154   0.00415  -0.2031  0.2220  0.4866  -1.4507   0.0000   0.0000   0.0000   0.4164
   2.700   1.1913   0.01160   0.00421  -0.2030  0.2203  0.4931  -1.4683   0.0000   0.0000   0.0000   0.4147
   2.800   1.2020   0.01166   0.00428  -0.2029  0.2179  0.4977  -1.4858   0.0000   0.0000   0.0000   0.4130
   2.900   1.2123   0.01175   0.00435  -0.2028  0.2133  0.5016  -1.5045   0.0000   0.0000   0.0000   0.4113
   3.000   1.2207   0.01200   0.00454  -0.2024  0.1956  0.5074  -1.5235   0.0000   0.0000   0.0000   0.4096
   3.100   1.2305   0.01213   0.00465  -0.2022  0.1911  0.5132  -1.5442   0.0000   0.0000   0.0000   0.4080
   3.200   1.2403   0.01226   0.00475  -0.2019  0.1867  0.5185  -1.5649   0.0000   0.0000   0.0000   0.4064
   3.300   1.2500   0.01240   0.00486  -0.2017  0.1821  0.5232  -1.5855   0.0000   0.0000   0.0000   0.4048
   3.400   1.2597   0.01253   0.00496  -0.2014  0.1772  0.5272  -1.6062   0.0000   0.0000   0.0000   0.4032
   3.500   1.2696   0.01263   0.00506  -0.2012  0.1722  0.5306  -1.6272   0.0000   0.0000   0.0000   0.4016
   3.600   1.2800   0.01271   0.00514  -0.2011  0.1698  0.5340  -1.6488   0.0000   0.0000   0.0000   0.4001
   3.700   1.2906   0.01278   0.00522  -0.2010  0.1686  0.5409  -1.6707   0.0000   0.0000   0.0000   0.3986
   3.800   1.3011   0.01284   0.00531  -0.2009  0.1668  0.5491  -1.6930   0.0000   0.0000   0.0000   0.3971
   3.900   1.3113   0.01293   0.00540  -0.2008  0.1639  0.5565  -1.7254   0.0000   0.0000   0.0000   0.3957
   4.000   1.3207   0.01307   0.00555  -0.2005  0.1558  0.5609  -1.7565   0.0000   0.0000   0.0000   0.3942
   4.100   1.3285   0.01333   0.00574  -0.1999  0.1444  0.5668  -1.7853   0.0000   0.0000   0.0000   0.3928
   4.200   1.3381   0.01347   0.00588  -0.1997  0.1410  0.5780  -1.8171   0.0000   0.0000   0.0000   0.3914
   4.300   1.3475   0.01361   0.00602  -0.1994  0.1376  0.5874  -1.8487   0.0000   0.0000   0.0000   0.3900
   4.400   1.3566   0.01376   0.00615  -0.1991  0.1335  0.5947  -1.8799   0.0000   0.0000   0.0000   0.3886
   4.500   1.3658   0.01391   0.00628  -0.1987  0.1275  0.6018  -1.9115   0.0000   0.0000   0.0000   0.3872
   4.600   1.3756   0.01401   0.00640  -0.1985  0.1235  0.6100  -1.9443   0.0000   0.0000   0.0000   0.3858
   4.700   1.3853   0.01412   0.00652  -0.1983  0.1210  0.6160  -1.9771   0.0000   0.0000   0.0000   0.3845
   4.900   1.3997   0.01467   0.00695  -0.1970  0.0995  0.6248  -2.0349   0.0000   0.0000   0.0000   0.3818
   5.000   1.4073   0.01491   0.00713  -0.1963  0.0943  0.6280  -2.0643   0.0000   0.0000   0.0000   0.3804
   5.100   1.4156   0.01509   0.00729  -0.1959  0.0881  0.6324  -2.0952   0.0000   0.0000   0.0000   0.3791
   5.200   1.4249   0.01522   0.00743  -0.1956  0.0842  0.6388  -2.1278   0.0000   0.0000   0.0000   0.3779
   5.300   1.4343   0.01532   0.00756  -0.1953  0.0832  0.6442  -2.1613   0.0000   0.0000   0.0000   0.3766
   5.400   1.4436   0.01543   0.00768  -0.1950  0.0816  0.6491  -2.1945   0.0000   0.0000   0.0000   0.3754
   5.500   1.4527   0.01555   0.00781  -0.1946  0.0796  0.6535  -2.2274   0.0000   0.0000   0.0000   0.3741
   5.600   1.4614   0.01569   0.00794  -0.1942  0.0767  0.6570  -2.2600   0.0000   0.0000   0.0000   0.3729
   5.700   1.4676   0.01598   0.00820  -0.1934  0.0665  0.6597  -2.2885   0.0000   0.0000   0.0000   0.3716
   5.900   1.4831   0.01632   0.00851  -0.1922  0.0635  0.6680  -2.3507   0.0000   0.0000   0.0000   0.3691
   6.000   1.4902   0.01650   0.00867  -0.1915  0.0618  0.6721  -2.3807   0.0000   0.0000   0.0000   0.3679
   6.100   1.4971   0.01667   0.00884  -0.1908  0.0596  0.6762  -2.4106   0.0000   0.0000   0.0000   0.3666
   6.200   1.5037   0.01688   0.00906  -0.1900  0.0560  0.6802  -2.4397   0.0000   0.0000   0.0000   0.3654
   6.300   1.5107   0.01706   0.00925  -0.1893  0.0529  0.6842  -2.4696   0.0000   0.0000   0.0000   0.3642
   6.400   1.5183   0.01720   0.00940  -0.1887  0.0516  0.6880  -2.5014   0.0000   0.0000   0.0000   0.3630
   6.500   1.5261   0.01735   0.00956  -0.1881  0.0513  0.6911  -2.5354   0.0000   0.0000   0.0000   0.3618
   6.600   1.5340   0.01749   0.00972  -0.1876  0.0509  0.6966  -2.5696   0.0000   0.0000   0.0000   0.3607
   6.700   1.5417   0.01763   0.00990  -0.1870  0.0504  0.7018  -2.6033   0.0000   0.0000   0.0000   0.3595
   6.800   1.5493   0.01779   0.01007  -0.1864  0.0497  0.7068  -2.6367   0.0000   0.0000   0.0000   0.3584
   6.900   1.5566   0.01796   0.01026  -0.1858  0.0489  0.7118  -2.6699   0.0000   0.0000   0.0000   0.3573
   7.000   1.5639   0.01813   0.01044  -0.1851  0.0481  0.7166  -2.7028   0.0000   0.0000   0.0000   0.3561
   7.100   1.5709   0.01832   0.01063  -0.1845  0.0472  0.7210  -2.7355   0.0000   0.0000   0.0000   0.3550
   7.200   1.5779   0.01851   0.01085  -0.1838  0.0461  0.7277  -2.7683   0.0000   0.0000   0.0000   0.3539
   7.300   1.5845   0.01871   0.01107  -0.1831  0.0450  0.7345  -2.8007   0.0000   0.0000   0.0000   0.3528
   7.400   1.5908   0.01894   0.01131  -0.1823  0.0438  0.7413  -2.8327   0.0000   0.0000   0.0000   0.3517
   7.500   1.5969   0.01919   0.01156  -0.1815  0.0424  0.7477  -2.8643   0.0000   0.0000   0.0000   0.3506
   7.600   1.6030   0.01944   0.01183  -0.1807  0.0410  0.7548  -2.8960   0.0000   0.0000   0.0000   0.3495
   7.700   1.6093   0.01967   0.01208  -0.1800  0.0395  0.7628  -2.9279   0.0000   0.0000   0.0000   0.3484
   7.800   1.6159   0.01990   0.01232  -0.1793  0.0382  0.7710  -2.9599   0.0000   0.0000   0.0000   0.3474
   8.000   1.6299   0.02030   0.01277  -0.1781  0.0375  0.7884  -3.0294   0.0000   0.0000   0.0000   0.3453
   8.100   1.6365   0.02051   0.01300  -0.1775  0.0370  0.7983  -3.0638   0.0000   0.0000   0.0000   0.3443
   8.200   1.6430   0.02074   0.01325  -0.1768  0.0362  0.8078  -3.0981   0.0000   0.0000   0.0000   0.3433
   8.300   1.6492   0.02098   0.01351  -0.1761  0.0352  0.8190  -3.1327   0.0000   0.0000   0.0000   0.3423
   8.500   1.6545   0.02189   0.01440  -0.1737  0.0260  0.8452  -3.2013   0.0000   0.0000   0.0000   0.3401
   8.600   1.6570   0.02235   0.01486  -0.1724  0.0223  0.8642  -3.2210   0.0000   0.0000   0.0000   0.3390
   8.700   1.6581   0.02271   0.01528  -0.1709  0.0187  0.9076  -3.2268   0.0000   0.0000   0.0000   0.3379
   8.800   1.6662   0.02243   0.01517  -0.1702  0.0259  1.0000  -3.2854   0.0000   0.0000   0.0000   0.3368
   8.900   1.6698   0.02288   0.01559  -0.1692  0.0235  1.0000  -3.3115   0.0000   0.0000   0.0000   0.3358
   9.000   1.6727   0.02339   0.01608  -0.1681  0.0203  1.0000  -3.3225   0.0000   0.0000   0.0000   0.3348
   9.100   1.6769   0.02382   0.01650  -0.1673  0.0170  1.0000  -3.3386   0.0000   0.0000   0.0000   0.3338
   9.200   1.6820   0.02420   0.01687  -0.1665  0.0158  1.0000  -3.3675   0.0000   0.0000   0.0000   0.3329
   9.300   1.6751   0.02544   0.01810  -0.1643  0.0053  1.0000  -3.3814   0.0000   0.0000   0.0000   0.3318
   9.400   1.6784   0.02596   0.01863  -0.1634  0.0043  1.0000  -3.4104   0.0000   0.0000   0.0000   0.3309
   9.500   1.6820   0.02646   0.01913  -0.1625  0.0039  1.0000  -3.4403   0.0000   0.0000   0.0000   0.3300
   9.600   1.6867   0.02688   0.01956  -0.1618  0.0034  1.0000  -3.4680   0.0000   0.0000   0.0000   0.3291
   9.700   1.6917   0.02729   0.01997  -0.1612  0.0027  1.0000  -3.4937   0.0000   0.0000   0.0000   0.3282
   9.800   1.6963   0.02773   0.02043  -0.1605  0.0024  1.0000  -3.5219   0.0000   0.0000   0.0000   0.3274
   9.900   1.7007   0.02820   0.02092  -0.1598  0.0022  1.0000  -3.5509   0.0000   0.0000   0.0000   0.3265
  10.000   1.7053   0.02866   0.02140  -0.1591  0.0021  1.0000  -3.5801   0.0000   0.0000   0.0000   0.3257
  10.100   1.7096   0.02915   0.02191  -0.1584  0.0021  1.0000  -3.6150   0.0000   0.0000   0.0000   0.3248
  10.200   1.7139   0.02965   0.02243  -0.1577  0.0020  1.0000  -3.6505   0.0000   0.0000   0.0000   0.3240
  10.300   1.7182   0.03015   0.02295  -0.1571  0.0020  1.0000  -3.6867   0.0000   0.0000   0.0000   0.3232
  10.400   1.7227   0.03065   0.02347  -0.1565  0.0020  1.0000  -3.7236   0.0000   0.0000   0.0000   0.3224
  10.500   1.7270   0.03116   0.02401  -0.1559  0.0019  1.0000  -3.7603   0.0000   0.0000   0.0000   0.3216
  10.600   1.7310   0.03171   0.02459  -0.1552  0.0019  1.0000  -3.7963   0.0000   0.0000   0.0000   0.3208
  10.700   1.7350   0.03226   0.02516  -0.1546  0.0019  1.0000  -3.8325   0.0000   0.0000   0.0000   0.3201
  10.800   1.7392   0.03281   0.02574  -0.1540  0.0019  1.0000  -3.8692   0.0000   0.0000   0.0000   0.3193
  10.900   1.7434   0.03336   0.02631  -0.1534  0.0019  1.0000  -3.9061   0.0000   0.0000   0.0000   0.3186
  11.000   1.7472   0.03394   0.02692  -0.1528  0.0019  1.0000  -3.9422   0.0000   0.0000   0.0000   0.3178
  11.100   1.7507   0.03457   0.02757  -0.1522  0.0019  1.0000  -3.9774   0.0000   0.0000   0.0000   0.3171
  11.200   1.7542   0.03519   0.02823  -0.1516  0.0019  1.0000  -4.0127   0.0000   0.0000   0.0000   0.3164
  11.300   1.7579   0.03581   0.02887  -0.1510  0.0019  1.0000  -4.0484   0.0000   0.0000   0.0000   0.3157
  11.500   1.7644   0.03713   0.03027  -0.1499  0.0019  1.0000  -4.1174   0.0000   0.0000   0.0000   0.3142
  11.600   1.7672   0.03784   0.03102  -0.1493  0.0019  1.0000  -4.1507   0.0000   0.0000   0.0000   0.3136
  11.700   1.7701   0.03855   0.03175  -0.1487  0.0019  1.0000  -4.1845   0.0000   0.0000   0.0000   0.3129
  11.800   1.7732   0.03925   0.03248  -0.1481  0.0019  1.0000  -4.2189   0.0000   0.0000   0.0000   0.3122
  11.900   1.7762   0.03995   0.03321  -0.1476  0.0019  1.0000  -4.2533   0.0000   0.0000   0.0000   0.3115
  12.000   1.7789   0.04070   0.03399  -0.1470  0.0020  1.0000  -4.2866   0.0000   0.0000   0.0000   0.3109
  12.100   1.7809   0.04152   0.03485  -0.1465  0.0020  1.0000  -4.3344   0.0000   0.0000   0.0000   0.3103
  12.200   1.7828   0.04234   0.03570  -0.1459  0.0020  1.0000  -4.3942   0.0000   0.0000   0.0000   0.3096
  12.300   1.7849   0.04314   0.03653  -0.1453  0.0020  1.0000  -4.4550   0.0000   0.0000   0.0000   0.3090
  12.400   1.7871   0.04394   0.03737  -0.1448  0.0020  1.0000  -4.5163   0.0000   0.0000   0.0000   0.3084
  12.500   1.7889   0.04479   0.03825  -0.1442  0.0020  1.0000  -4.5762   0.0000   0.0000   0.0000   0.3078
  12.600   1.7898   0.04576   0.03926  -0.1437  0.0021  1.0000  -4.6318   0.0000   0.0000   0.0000   0.3072
  12.700   1.7911   0.04671   0.04024  -0.1432  0.0021  1.0000  -4.6891   0.0000   0.0000   0.0000   0.3066
  12.800   1.7926   0.04763   0.04120  -0.1427  0.0021  1.0000  -4.7483   0.0000   0.0000   0.0000   0.3060
  12.900   1.7943   0.04855   0.04215  -0.1422  0.0021  1.0000  -4.8084   0.0000   0.0000   0.0000   0.3055
  13.000   1.7960   0.04948   0.04312  -0.1417  0.0021  1.0000  -4.8686   0.0000   0.0000   0.0000   0.3049
  13.100   1.7969   0.05050   0.04418  -0.1413  0.0022  1.0000  -4.9253   0.0000   0.0000   0.0000   0.3044
  13.200   1.7972   0.05163   0.04535  -0.1408  0.0022  1.0000  -4.9785   0.0000   0.0000   0.0000   0.3039
  13.300   1.7979   0.05271   0.04646  -0.1404  0.0022  1.0000  -5.0341   0.0000   0.0000   0.0000   0.3034
  13.400   1.7990   0.05376   0.04755  -0.1400  0.0022  1.0000  -5.0915   0.0000   0.0000   0.0000   0.3029
  13.500   1.8001   0.05481   0.04863  -0.1396  0.0023  1.0000  -5.1491   0.0000   0.0000   0.0000   0.3024
  13.600   1.8008   0.05592   0.04978  -0.1392  0.0023  1.0000  -5.2047   0.0000   0.0000   0.0000   0.3019
  13.700   1.8003   0.05720   0.05110  -0.1389  0.0023  1.0000  -5.2539   0.0000   0.0000   0.0000   0.3015
  13.800   1.8002   0.05843   0.05237  -0.1385  0.0024  1.0000  -5.3054   0.0000   0.0000   0.0000   0.3011
  13.900   1.8007   0.05960   0.05357  -0.1382  0.0024  1.0000  -5.3595   0.0000   0.0000   0.0000   0.3006
  14.000   1.8013   0.06075   0.05476  -0.1379  0.0024  1.0000  -5.4140   0.0000   0.0000   0.0000   0.3002
  14.100   1.8017   0.06193   0.05598  -0.1376  0.0025  1.0000  -5.4674   0.0000   0.0000   0.0000   0.2998
  14.200   1.8017   0.06318   0.05727  -0.1373  0.0025  1.0000  -5.5179   0.0000   0.0000   0.0000   0.2994
  14.300   1.8003   0.06464   0.05878  -0.1370  0.0026  1.0000  -5.5606   0.0000   0.0000   0.0000   0.2991
  14.400   1.7996   0.06602   0.06019  -0.1368  0.0026  1.0000  -5.6061   0.0000   0.0000   0.0000   0.2987
  14.500   1.7995   0.06731   0.06152  -0.1366  0.0027  1.0000  -5.6539   0.0000   0.0000   0.0000   0.2984
  14.600   1.7996   0.06858   0.06283  -0.1364  0.0027  1.0000  -5.7016   0.0000   0.0000   0.0000   0.2980
  14.700   1.7997   0.06985   0.06413  -0.1362  0.0028  1.0000  -5.7478   0.0000   0.0000   0.0000   0.2976
  14.800   1.7984   0.07136   0.06568  -0.1361  0.0028  1.0000  -5.7851   0.0000   0.0000   0.0000   0.2974
  14.900   1.7975   0.07282   0.06720  -0.1360  0.0029  1.0000  -5.8259   0.0000   0.0000   0.0000   0.2971
  15.000   1.7975   0.07414   0.06855  -0.1358  0.0030  1.0000  -5.8686   0.0000   0.0000   0.0000   0.2968
  15.100   1.7980   0.07539   0.06982  -0.1357  0.0031  1.0000  -5.9123   0.0000   0.0000   0.0000   0.2964
  15.200   1.7987   0.07661   0.07107  -0.1356  0.0031  1.0000  -5.9568   0.0000   0.0000   0.0000   0.2961
  15.300   1.7995   0.07783   0.07232  -0.1355  0.0032  1.0000  -6.0010   0.0000   0.0000   0.0000   0.2957
  15.400   1.7990   0.07922   0.07374  -0.1354  0.0033  1.0000  -6.0395   0.0000   0.0000   0.0000   0.2955
  15.500   1.7972   0.08080   0.07537  -0.1354  0.0034  1.0000  -6.0714   0.0000   0.0000   0.0000   0.2953
  15.600   1.7966   0.08222   0.07683  -0.1354  0.0035  1.0000  -6.1094   0.0000   0.0000   0.0000   0.2950
  15.700   1.7967   0.08355   0.07819  -0.1354  0.0036  1.0000  -6.1506   0.0000   0.0000   0.0000   0.2948
  15.800   1.7976   0.08477   0.07946  -0.1353  0.0037  1.0000  -6.1955   0.0000   0.0000   0.0000   0.2945
  15.900   1.7984   0.08601   0.08074  -0.1353  0.0038  1.0000  -6.2397   0.0000   0.0000   0.0000   0.2941
  16.000   1.7973   0.08757   0.08236  -0.1354  0.0039  1.0000  -6.2740   0.0000   0.0000   0.0000   0.2940
  16.100   1.7958   0.08922   0.08406  -0.1355  0.0040  1.0000  -6.3058   0.0000   0.0000   0.0000   0.2939
  16.200   1.7954   0.09070   0.08559  -0.1356  0.0041  1.0000  -6.3419   0.0000   0.0000   0.0000   0.2937
  16.300   1.7950   0.09216   0.08711  -0.1357  0.0042  1.0000  -6.3767   0.0000   0.0000   0.0000   0.2935
  16.400   1.7941   0.09372   0.08873  -0.1358  0.0043  1.0000  -6.4055   0.0000   0.0000   0.0000   0.2933
  16.500   1.7918   0.09547   0.09056  -0.1359  0.0044  1.0000  -6.4210   0.0000   0.0000   0.0000   0.2932
  16.600   1.7847   0.09812   0.09336  -0.1363  0.0047  1.0000  -6.3734   0.0000   0.0000   0.0000   0.2934
  16.700   1.7830   0.09983   0.09511  -0.1366  0.0048  1.0000  -6.4139   0.0000   0.0000   0.0000   0.2934
  16.800   1.7821   0.10141   0.09672  -0.1368  0.0049  1.0000  -6.4588   0.0000   0.0000   0.0000   0.2933
  16.900   1.7812   0.10297   0.09831  -0.1371  0.0050  1.0000  -6.5040   0.0000   0.0000   0.0000   0.2932
  17.000   1.7803   0.10454   0.09992  -0.1373  0.0051  1.0000  -6.5488   0.0000   0.0000   0.0000   0.2931
  17.100   1.7776   0.10645   0.10188  -0.1377  0.0052  1.0000  -6.5813   0.0000   0.0000   0.0000   0.2932
  17.200   1.7741   0.10851   0.10398  -0.1382  0.0053  1.0000  -6.6082   0.0000   0.0000   0.0000   0.2934
  17.300   1.7720   0.11029   0.10580  -0.1386  0.0055  1.0000  -6.6442   0.0000   0.0000   0.0000   0.2934
  17.400   1.7703   0.11199   0.10754  -0.1390  0.0056  1.0000  -6.6824   0.0000   0.0000   0.0000   0.2934
  17.500   1.7686   0.11371   0.10930  -0.1393  0.0057  1.0000  -6.7197   0.0000   0.0000   0.0000   0.2934
  17.600   1.7665   0.11549   0.11113  -0.1398  0.0059  1.0000  -6.7538   0.0000   0.0000   0.0000   0.2935
  17.700   1.7623   0.11767   0.11336  -0.1404  0.0060  1.0000  -6.7731   0.0000   0.0000   0.0000   0.2938
  17.800   1.7576   0.11995   0.11569  -0.1411  0.0061  1.0000  -6.7882   0.0000   0.0000   0.0000   0.2942
  17.900   1.7542   0.12197   0.11778  -0.1417  0.0063  1.0000  -6.8109   0.0000   0.0000   0.0000   0.2944
  18.000   1.7510   0.12396   0.11982  -0.1424  0.0065  1.0000  -6.8332   0.0000   0.0000   0.0000   0.2946
  18.100   1.7474   0.12603   0.12195  -0.1430  0.0067  1.0000  -6.8503   0.0000   0.0000   0.0000   0.2949
  18.200   1.7415   0.12855   0.12454  -0.1440  0.0069  1.0000  -6.8508   0.0000   0.0000   0.0000   0.2954
  18.300   1.7488   0.12893   0.12500  -0.1438  0.0084  1.0000  -6.8817   0.0000   0.0000   0.0000   0.2947
  18.400   1.7479   0.13062   0.12677  -0.1442  0.0090  1.0000  -6.8900   0.0000   0.0000   0.0000   0.2947
  18.500   1.7446   0.13266   0.12887  -0.1449  0.0093  1.0000  -6.8909   0.0000   0.0000   0.0000   0.2949
  18.600   1.7399   0.13489   0.13117  -0.1457  0.0095  1.0000  -6.8854   0.0000   0.0000   0.0000   0.2953
  18.700   1.7341   0.13728   0.13364  -0.1465  0.0096  1.0000  -6.8737   0.0000   0.0000   0.0000   0.2958
  18.800   1.7268   0.13998   0.13641  -0.1477  0.0097  1.0000  -6.8539   0.0000   0.0000   0.0000   0.2966
  18.900   1.7190   0.14283   0.13933  -0.1489  0.0098  1.0000  -6.8293   0.0000   0.0000   0.0000   0.2974
  19.000   1.7111   0.14560   0.14217  -0.1501  0.0098  1.0000  -6.7985   0.0000   0.0000   0.0000   0.2982
  19.600   1.7177   0.15307   0.14980  -0.1535  0.0120  1.0000  -7.0907   0.0000   0.0000   0.0000   0.2982
  19.700   1.7165   0.15453   0.15135  -0.1542  0.0128  1.0000  -7.1000   0.0000   0.0000   0.0000   0.2983
