XFLR5 v6.02 Beta

 Calculated polar for: WORTMANN FX 63-137

 1 1 Reynolds number fixed          Mach number fixed         

 xtrf =   1.000 (top)        1.000 (bottom)
 Mach =   0.000     Re =     9.000 e 6     Ncrit =   9.000

  alpha     CL        CD       CDp       CM    Top Xtr Bot Xtr   Cpmin    Chinge    XCp    
 ------- -------- --------- --------- -------- ------- ------- -------- --------- ---------
 -18.000  -0.8828   0.04992   0.04717  -0.1469  0.7822  0.0036  -18.3305   0.0000   0.0527
 -17.500  -0.9209   0.03778   0.03481  -0.1577  0.7733  0.0036  -18.7394   0.0000   0.0503
 -17.000  -0.9263   0.03079   0.02761  -0.1641  0.7456  0.0037  -18.5461   0.0000   0.0460
 -16.500  -0.9186   0.02573   0.02240  -0.1685  0.7291  0.0037  -18.1240   0.0000   0.0412
 -16.000  -0.9038   0.02185   0.01842  -0.1715  0.7195  0.0038  -17.5783   0.0000   0.0361
 -15.500  -0.8674   0.01877   0.01515  -0.1767  0.6809  0.0038  -16.7942   0.0000   0.0228
 -15.000  -0.8142   0.01627   0.01250  -0.1836  0.6584  0.0039  -15.8400   0.0000   0.0015
 -14.500  -0.7605   0.01488   0.01103  -0.1865  0.6544  0.0039  -14.8622   0.0000  -0.0181
 -14.000  -0.7082   0.01388   0.00987  -0.1881  0.6185  0.0040  -13.9157   0.0000  -0.0384
 -13.500  -0.6575   0.01320   0.00887  -0.1889  0.5322  0.0040  -13.0129   0.0000  -0.0601
 -13.000  -0.6035   0.01254   0.00802  -0.1899  0.4819  0.0041  -12.0988   0.0000  -0.0878
 -12.500  -0.5459   0.01182   0.00721  -0.1914  0.4656  0.0042  -11.1824   0.0000  -0.1242
 -12.000  -0.4887   0.01125   0.00652  -0.1925  0.4375  0.0042  -10.2995   0.0000  -0.1684
 -11.500  -0.4306   0.01074   0.00592  -0.1937  0.4210  0.0043  -9.4287   0.0000  -0.2256
 -11.000  -0.3720   0.01031   0.00542  -0.1948  0.4030  0.0044  -8.5827   0.0000  -0.3014
  -4.000   0.4601   0.00790   0.00188  -0.2061  0.1672  0.0046  -1.8935   0.0000   0.7045
  -3.500   0.5180   0.00800   0.00192  -0.2065  0.1436  0.0065  -1.6661   0.0000   0.6535
  -3.000   0.5769   0.00802   0.00191  -0.2071  0.1363  0.0138  -1.3978   0.0000   0.6125
  -2.500   0.6352   0.00808   0.00194  -0.2075  0.1235  0.0147  -1.1269   0.0000   0.5791
  -2.000   0.6935   0.00813   0.00197  -0.2079  0.1219  0.0148  -0.9442   0.0000   0.5513
  -1.500   0.7504   0.00830   0.00208  -0.2081  0.1030  0.0154  -0.9922   0.0000   0.5279
  -1.000   0.8077   0.00843   0.00216  -0.2084  0.0978  0.0158  -1.0436   0.0000   0.5077
  -0.500   0.8650   0.00855   0.00224  -0.2087  0.0925  0.0161  -1.0955   0.0000   0.4901
   0.000   0.9223   0.00866   0.00235  -0.2089  0.0874  0.0163  -1.1477   0.0000   0.4747
   0.500   0.9793   0.00879   0.00246  -0.2092  0.0840  0.0167  -1.2002   0.0000   0.4610
   1.000   1.0362   0.00891   0.00258  -0.2094  0.0841  0.0173  -1.2624   0.0000   0.4488
   1.500   1.0927   0.00906   0.00273  -0.2095  0.0838  0.0211  -1.3358   0.0000   0.4378
   2.000   1.1490   0.00920   0.00290  -0.2097  0.0832  0.0357  -1.4113   0.0000   0.4278
   2.500   1.2000   0.00978   0.00333  -0.2088  0.0447  0.0396  -1.4940   0.0000   0.4186
   3.000   1.2549   0.01003   0.00357  -0.2087  0.0380  0.0647  -1.5991   0.0000   0.4102
   3.500   1.3093   0.01027   0.00381  -0.2085  0.0372  0.0676  -1.7151   0.0000   0.4024
   4.000   1.3631   0.01054   0.00407  -0.2082  0.0363  0.0766  -1.8459   0.0000   0.3952
   4.500   1.4134   0.01108   0.00454  -0.2073  0.0178  0.1024  -2.0051   0.0000   0.3884
   5.000   1.4626   0.01167   0.00511  -0.2062  0.0042  0.1293  -2.1856   0.0000   0.3819
   5.500   1.5149   0.01203   0.00553  -0.2058  0.0032  0.1939  -2.3669   0.0000   0.3759
   7.000   1.6691   0.01317   0.00698  -0.2043  0.0013  0.4377  -2.9344   0.0000   0.3600
   7.500   1.7174   0.01365   0.00753  -0.2032  0.0013  0.4994  -3.1273   0.0000   0.3551
   8.000   1.7619   0.01422   0.00811  -0.2013  0.0013  0.5001  -3.3171   0.0000   0.3502
   8.500   1.8042   0.01482   0.00874  -0.1991  0.0012  0.5270  -3.5063   0.0000   0.3454
   9.000   1.8361   0.01551   0.00944  -0.1948  0.0012  0.5328  -3.6882   0.0000   0.3402
   9.500   1.8697   0.01628   0.01027  -0.1910  0.0012  0.5665  -3.9264   0.0000   0.3353
  10.000   1.9031   0.01716   0.01124  -0.1874  0.0012  0.6171  -4.2184   0.0000   0.3307
  10.500   1.9341   0.01820   0.01235  -0.1836  0.0011  0.6550  -4.6998   0.0000   0.3262
  11.000   1.9631   0.01941   0.01363  -0.1797  0.0011  0.6895  -5.1903   0.0000   0.3218
  11.500   1.9899   0.02084   0.01512  -0.1757  0.0011  0.7138  -5.6853   0.0000   0.3176
  12.000   2.0148   0.02251   0.01688  -0.1718  0.0011  0.7495  -6.1831   0.0000   0.3135
  12.500   2.0374   0.02447   0.01897  -0.1680  0.0011  0.8039  -6.6759   0.0000   0.3096
  13.500   2.0830   0.02888   0.02370  -0.1617  0.0009  1.0000  -7.8236   0.0000   0.3025
  14.000   2.0998   0.03172   0.02659  -0.1583  0.0009  1.0000  -8.3513   0.0000   0.2991
  14.500   2.1146   0.03491   0.02984  -0.1550  0.0009  1.0000  -8.8786   0.0000   0.2959
  15.000   2.1268   0.03850   0.03350  -0.1520  0.0009  1.0000  -9.4000   0.0000   0.2928
  15.500   2.1351   0.04253   0.03761  -0.1491  0.0009  1.0000  -9.8995   0.0000   0.2899
  16.000   2.1415   0.04709   0.04226  -0.1465  0.0008  1.0000  -10.3987   0.0000   0.2873
  16.500   2.1468   0.05205   0.04730  -0.1444  0.0008  1.0000  -10.8991   0.0000   0.2848
  17.000   2.1503   0.05745   0.05279  -0.1426  0.0008  1.0000  -11.3928   0.0000   0.2825
  17.500   2.1557   0.06269   0.05811  -0.1412  0.0008  1.0000  -11.9138   0.0000   0.2803
  18.000   2.1526   0.06923   0.06475  -0.1401  0.0008  1.0000  -12.3648   0.0000   0.2785
  18.500   2.1467   0.07627   0.07191  -0.1395  0.0007  1.0000  -12.7945   0.0000   0.2769
  19.000   2.1380   0.08353   0.07929  -0.1392  0.0007  1.0000  -13.2069   0.0000   0.2756
  19.500   2.1269   0.09148   0.08736  -0.1395  0.0007  1.0000  -13.5918   0.0000   0.2746
  20.000   2.1235   0.09835   0.09433  -0.1399  0.0007  1.0000  -14.0538   0.0000   0.2734


