xflr5 v6.59

 Calculated polar for: WORTMANN FX 63-137 AIRFOIL

 1 1 Reynolds number fixed          Mach number fixed         

 xtrf =   1.000 (top)        1.000 (bottom)
 Mach =   0.000     Re =     2.100 e 6     Ncrit =   9.000

  alpha     CL        CD       CDp       Cm    Top Xtr Bot Xtr   Cpmin    Chinge    XCp    
 ------- -------- --------- --------- -------- ------- ------- -------- --------- ---------
 -13.900  -0.5191   0.07520   0.07364  -0.0938  0.9927  0.0069  -9.0385   0.0000   0.0000   0.0000   0.0415
 -13.800  -0.5904   0.06043   0.05871  -0.1044  0.9919  0.0067  -10.2503   0.0000   0.0000   0.0000   0.0475
 -13.700  -0.6140   0.05305   0.05123  -0.1115  0.9908  0.0067  -10.6811   0.0000   0.0000   0.0000   0.0436
 -13.600  -0.6301   0.04810   0.04620  -0.1160  0.9883  0.0067  -10.9322   0.0000   0.0000   0.0000   0.0418
 -13.500  -0.6393   0.04405   0.04207  -0.1205  0.9854  0.0067  -11.0854   0.0000   0.0000   0.0000   0.0379
 -13.200  -0.6554   0.03526   0.03308  -0.1306  0.9699  0.0067  -11.3046   0.0000   0.0000   0.0000   0.0285
 -13.100  -0.6520   0.03243   0.03016  -0.1356  0.9628  0.0067  -11.3011   0.0000   0.0000   0.0000   0.0201
 -13.000  -0.6388   0.02940   0.02700  -0.1429  0.9557  0.0067  -11.2273   0.0000   0.0000   0.0000   0.0042
 -12.900  -0.6133   0.02626   0.02371  -0.1529  0.9496  0.0068  -11.0631   0.0000   0.0000   0.0000  -0.0219
 -12.800  -0.5803   0.02347   0.02074  -0.1638  0.9411  0.0068  -10.8324   0.0000   0.0000   0.0000  -0.0557
 -12.700  -0.5520   0.02145   0.01852  -0.1721  0.9230  0.0068  -10.6132   0.0000   0.0000   0.0000  -0.0860
 -12.600  -0.5385   0.02026   0.01715  -0.1758  0.9003  0.0068  -10.4784   0.0000   0.0000   0.0000  -0.1008
 -12.500  -0.5294   0.01930   0.01606  -0.1781  0.8837  0.0068  -10.3670   0.0000   0.0000   0.0000  -0.1108
 -12.400  -0.5201   0.01844   0.01507  -0.1801  0.8704  0.0068  -10.2512   0.0000   0.0000   0.0000  -0.1208
 -12.200  -0.5014   0.01715   0.01355  -0.1828  0.8451  0.0068  -10.0046   0.0000   0.0000   0.0000  -0.1392
 -12.100  -0.4926   0.01668   0.01297  -0.1835  0.8349  0.0068  -9.8795   0.0000   0.0000   0.0000  -0.1471
 -12.000  -0.4831   0.01622   0.01244  -0.1841  0.8268  0.0068  -9.7489   0.0000   0.0000   0.0000  -0.1559
 -11.900  -0.4729   0.01579   0.01193  -0.1848  0.8192  0.0068  -9.6127   0.0000   0.0000   0.0000  -0.1657
 -11.800  -0.4633   0.01542   0.01147  -0.1853  0.8096  0.0068  -9.4800   0.0000   0.0000   0.0000  -0.1749
 -11.700  -0.4533   0.01507   0.01103  -0.1857  0.8020  0.0068  -9.3448   0.0000   0.0000   0.0000  -0.1849
 -11.600  -0.4423   0.01471   0.01060  -0.1863  0.7978  0.0068  -9.2034   0.0000   0.0000   0.0000  -0.1966
 -11.500  -0.4315   0.01438   0.01020  -0.1868  0.7929  0.0068  -9.0618   0.0000   0.0000   0.0000  -0.2087
 -11.400  -0.4207   0.01408   0.00983  -0.1873  0.7879  0.0068  -8.9205   0.0000   0.0000   0.0000  -0.2211
 -11.300  -0.4099   0.01380   0.00948  -0.1877  0.7827  0.0067  -8.7796   0.0000   0.0000   0.0000  -0.2340
 -11.200  -0.3989   0.01353   0.00915  -0.1881  0.7777  0.0067  -8.6374   0.0000   0.0000   0.0000  -0.2479
 -11.100  -0.3872   0.01325   0.00883  -0.1886  0.7757  0.0067  -8.4907   0.0000   0.0000   0.0000  -0.2640
 -11.000  -0.3755   0.01300   0.00852  -0.1890  0.7729  0.0067  -8.3446   0.0000   0.0000   0.0000  -0.2808
 -10.900  -0.3639   0.01276   0.00823  -0.1895  0.7692  0.0067  -8.1995   0.0000   0.0000   0.0000  -0.2985
 -10.800  -0.3525   0.01254   0.00796  -0.1898  0.7642  0.0067  -8.0560   0.0000   0.0000   0.0000  -0.3169
 -10.700  -0.3413   0.01235   0.00771  -0.1901  0.7580  0.0066  -7.9150   0.0000   0.0000   0.0000  -0.3357
 -10.600  -0.3304   0.01218   0.00747  -0.1903  0.7510  0.0066  -7.7757   0.0000   0.0000   0.0000  -0.3554
 -10.500  -0.3187   0.01199   0.00723  -0.1906  0.7472  0.0066  -7.6326   0.0000   0.0000   0.0000  -0.3781
 -10.400  -0.3070   0.01181   0.00700  -0.1910  0.7437  0.0066  -7.4898   0.0000   0.0000   0.0000  -0.4028
 -10.300  -0.2953   0.01164   0.00679  -0.1913  0.7399  0.0066  -7.3481   0.0000   0.0000   0.0000  -0.4292
 -10.200  -0.2837   0.01148   0.00658  -0.1916  0.7361  0.0066  -7.2075   0.0000   0.0000   0.0000  -0.4576
 -10.100  -0.2721   0.01133   0.00638  -0.1918  0.7322  0.0065  -7.0680   0.0000   0.0000   0.0000  -0.4882
 -10.000  -0.2605   0.01119   0.00619  -0.1921  0.7282  0.0065  -6.9294   0.0000   0.0000   0.0000  -0.5215
  -9.900  -0.2488   0.01105   0.00601  -0.1924  0.7243  0.0065  -6.7909   0.0000   0.0000   0.0000  -0.5583
  -9.800  -0.2369   0.01091   0.00583  -0.1926  0.7213  0.0065  -6.6524   0.0000   0.0000   0.0000  -0.5995
  -9.700  -0.2247   0.01076   0.00566  -0.1930  0.7204  0.0065  -6.5131   0.0000   0.0000   0.0000  -0.6465
  -9.600  -0.2125   0.01061   0.00549  -0.1933  0.7195  0.0065  -6.3889   0.0000   0.0000   0.0000  -0.6989
  -9.500  -0.2003   0.01047   0.00533  -0.1937  0.7186  0.0064  -6.2711   0.0000   0.0000   0.0000  -0.7578
  -9.400  -0.1881   0.01033   0.00517  -0.1940  0.7173  0.0064  -6.1541   0.0000   0.0000   0.0000  -0.8243
  -9.300  -0.1759   0.01019   0.00500  -0.1943  0.7156  0.0064  -6.0388   0.0000   0.0000   0.0000  -0.9000
  -9.200  -0.1638   0.01005   0.00485  -0.1947  0.7136  0.0064  -5.9228   0.0000   0.0000   0.0000  -0.9868
  -9.100  -0.1516   0.00992   0.00471  -0.1950  0.7110  0.0064  -5.8074   0.0000   0.0000   0.0000  -1.0872
  -9.000  -0.1397   0.00980   0.00457  -0.1953  0.7064  0.0063  -5.6938   0.0000   0.0000   0.0000  -1.2025
  -8.900  -0.1283   0.00972   0.00445  -0.1954  0.6982  0.0063  -5.5838   0.0000   0.0000   0.0000  -1.3313
  -8.800  -0.1169   0.00965   0.00433  -0.1955  0.6896  0.0063  -5.4747   0.0000   0.0000   0.0000  -1.4850
  -8.700  -0.1052   0.00957   0.00421  -0.1957  0.6840  0.0063  -5.3644   0.0000   0.0000   0.0000  -1.6798
  -8.600  -0.0936   0.00950   0.00410  -0.1958  0.6776  0.0063  -5.2557   0.0000   0.0000   0.0000  -1.9195
  -8.500  -0.0822   0.00945   0.00399  -0.1960  0.6705  0.0063  -5.1487   0.0000   0.0000   0.0000  -2.2210
  -8.400  -0.0706   0.00940   0.00389  -0.1961  0.6625  0.0063  -5.0420   0.0000   0.0000   0.0000  -2.6247
  -8.300  -0.0586   0.00932   0.00379  -0.1963  0.6593  0.0063  -4.9337   0.0000   0.0000   0.0000  -3.2180
  -8.200  -0.0465   0.00924   0.00369  -0.1966  0.6568  0.0062  -4.8260   0.0000   0.0000   0.0000  -4.1249
  -8.100  -0.0344   0.00916   0.00359  -0.1968  0.6534  0.0062  -4.7195   0.0000   0.0000   0.0000  -5.6585
  -8.000  -0.0226   0.00910   0.00351  -0.1970  0.6480  0.0062  -4.6146   0.0000   0.0000   0.0000  -8.7730
  -7.800   0.0004   0.00904   0.00335  -0.1972  0.6313  0.0062  -4.4110   0.0000   0.0000   0.0000  555.5125
  -7.700   0.0122   0.00900   0.00327  -0.1973  0.6260  0.0062  -4.3089   0.0000   0.0000   0.0000  16.9650
  -7.600   0.0240   0.00895   0.00320  -0.1975  0.6216  0.0062  -4.2074   0.0000   0.0000   0.0000   8.7199
  -7.500   0.0359   0.00890   0.00313  -0.1976  0.6171  0.0062  -4.1117   0.0000   0.0000   0.0000   5.9299
  -7.400   0.0476   0.00887   0.00306  -0.1978  0.6125  0.0062  -4.0366   0.0000   0.0000   0.0000   4.5290
  -7.300   0.0593   0.00883   0.00299  -0.1979  0.6076  0.0062  -3.9621   0.0000   0.0000   0.0000   3.6854
  -7.200   0.0711   0.00880   0.00293  -0.1981  0.6024  0.0063  -3.8877   0.0000   0.0000   0.0000   3.1178
  -7.100   0.0830   0.00876   0.00287  -0.1982  0.5977  0.0063  -3.8132   0.0000   0.0000   0.0000   2.7073
  -7.000   0.0951   0.00871   0.00281  -0.1984  0.5962  0.0063  -3.7382   0.0000   0.0000   0.0000   2.3957
  -6.900   0.1072   0.00866   0.00273  -0.1986  0.5954  0.0063  -3.6634   0.0000   0.0000   0.0000   2.1540
  -6.800   0.1193   0.00861   0.00268  -0.1988  0.5936  0.0063  -3.5896   0.0000   0.0000   0.0000   1.9621
  -6.700   0.1313   0.00856   0.00262  -0.1990  0.5911  0.0063  -3.5164   0.0000   0.0000   0.0000   1.8061
  -6.600   0.1432   0.00853   0.00257  -0.1992  0.5863  0.0063  -3.4440   0.0000   0.0000   0.0000   1.6776
  -6.500   0.1546   0.00853   0.00254  -0.1993  0.5768  0.0063  -3.3732   0.0000   0.0000   0.0000   1.5720
  -6.400   0.1657   0.00856   0.00251  -0.1993  0.5649  0.0063  -3.3035   0.0000   0.0000   0.0000   1.4829
  -6.300   0.1775   0.00854   0.00247  -0.1994  0.5598  0.0062  -3.2318   0.0000   0.0000   0.0000   1.4016
  -6.200   0.1892   0.00852   0.00243  -0.1995  0.5549  0.0062  -3.1598   0.0000   0.0000   0.0000   1.3305
  -6.100   0.2008   0.00852   0.00240  -0.1996  0.5495  0.0062  -3.0868   0.0000   0.0000   0.0000   1.2682
  -6.000   0.2122   0.00853   0.00238  -0.1997  0.5437  0.0062  -3.0111   0.0000   0.0000   0.0000   1.2131
  -5.900   0.2237   0.00854   0.00237  -0.1998  0.5376  0.0062  -2.9296   0.0000   0.0000   0.0000   1.1636
  -5.800   0.2349   0.00857   0.00242  -0.1998  0.5325  0.0062  -2.8224   0.0000   0.0000   0.0000   1.1196
  -5.700   0.2459   0.00863   0.00253  -0.1997  0.5311  0.0062  -2.7010   0.0000   0.0000   0.0000   1.0801
  -5.600   0.2577   0.00861   0.00252  -0.1998  0.5292  0.0062  -2.6261   0.0000   0.0000   0.0000   1.0423
  -5.500   0.2695   0.00859   0.00250  -0.2000  0.5264  0.0062  -2.5569   0.0000   0.0000   0.0000   1.0077
  -5.400   0.2813   0.00858   0.00248  -0.2001  0.5223  0.0062  -2.4903   0.0000   0.0000   0.0000   0.9762
  -5.300   0.2921   0.00864   0.00249  -0.2000  0.5070  0.0062  -2.4285   0.0000   0.0000   0.0000   0.9490
  -5.200   0.3032   0.00868   0.00247  -0.2001  0.4955  0.0062  -2.3673   0.0000   0.0000   0.0000   0.9231
  -5.100   0.3148   0.00868   0.00245  -0.2002  0.4895  0.0062  -2.3063   0.0000   0.0000   0.0000   0.8984
  -5.000   0.3263   0.00869   0.00243  -0.2002  0.4836  0.0062  -2.2469   0.0000   0.0000   0.0000   0.8755
  -4.900   0.3377   0.00870   0.00241  -0.2003  0.4775  0.0062  -2.1889   0.0000   0.0000   0.0000   0.8542
  -4.800   0.3494   0.00870   0.00239  -0.2004  0.4706  0.0062  -2.1316   0.0000   0.0000   0.0000   0.8342
  -4.700   0.3613   0.00868   0.00236  -0.2006  0.4667  0.0062  -2.0747   0.0000   0.0000   0.0000   0.8151
  -4.600   0.3733   0.00866   0.00232  -0.2007  0.4650  0.0062  -2.0186   0.0000   0.0000   0.0000   0.7972
  -4.500   0.3852   0.00863   0.00229  -0.2009  0.4628  0.0063  -1.9636   0.0000   0.0000   0.0000   0.7804
  -4.400   0.3971   0.00862   0.00225  -0.2011  0.4590  0.0063  -1.9104   0.0000   0.0000   0.0000   0.7647
  -4.300   0.4084   0.00865   0.00225  -0.2011  0.4490  0.0064  -1.8582   0.0000   0.0000   0.0000   0.7503
  -4.200   0.4190   0.00874   0.00226  -0.2010  0.4323  0.0064  -1.8082   0.0000   0.0000   0.0000   0.7373
  -4.100   0.4305   0.00875   0.00225  -0.2011  0.4270  0.0065  -1.7554   0.0000   0.0000   0.0000   0.7242
  -4.000   0.4417   0.00879   0.00227  -0.2011  0.4220  0.0068  -1.6980   0.0000   0.0000   0.0000   0.7120
  -3.800   0.4677   0.00861   0.00201  -0.2019  0.4107  0.0152  -1.7614   0.0000   0.0000   0.0000   0.6876
  -3.700   0.4786   0.00867   0.00206  -0.2018  0.4051  0.0157  -1.6698   0.0000   0.0000   0.0000   0.6773
  -3.600   0.4898   0.00870   0.00212  -0.2019  0.4020  0.0161  -1.5806   0.0000   0.0000   0.0000   0.6674
  -3.500   0.5012   0.00872   0.00218  -0.2019  0.4007  0.0164  -1.4961   0.0000   0.0000   0.0000   0.6579
  -3.400   0.5124   0.00875   0.00225  -0.2019  0.3992  0.0167  -1.4152   0.0000   0.0000   0.0000   0.6488
  -3.300   0.5233   0.00881   0.00236  -0.2019  0.3971  0.0170  -1.3296   0.0000   0.0000   0.0000   0.6402
  -2.800   0.5804   0.00893   0.00231  -0.2023  0.3596  0.0214  -1.0889   0.0000   0.0000   0.0000   0.6017
  -2.700   0.5921   0.00894   0.00228  -0.2024  0.3552  0.0212  -1.0459   0.0000   0.0000   0.0000   0.5948
  -2.600   0.6037   0.00896   0.00225  -0.2025  0.3507  0.0209  -1.0029   0.0000   0.0000   0.0000   0.5882
  -2.500   0.6154   0.00897   0.00223  -0.2026  0.3455  0.0206  -0.9597   0.0000   0.0000   0.0000   0.5818
  -2.400   0.6271   0.00897   0.00221  -0.2028  0.3408  0.0202  -0.9162   0.0000   0.0000   0.0000   0.5755
  -2.300   0.6390   0.00896   0.00218  -0.2029  0.3388  0.0193  -0.9020   0.0000   0.0000   0.0000   0.5695
  -2.200   0.6509   0.00895   0.00215  -0.2030  0.3378  0.0193  -0.9111   0.0000   0.0000   0.0000   0.5637
  -2.100   0.6628   0.00895   0.00213  -0.2032  0.3356  0.0192  -0.9204   0.0000   0.0000   0.0000   0.5582
  -2.000   0.6744   0.00896   0.00212  -0.2033  0.3317  0.0192  -0.9302   0.0000   0.0000   0.0000   0.5528
  -1.900   0.6837   0.00917   0.00220  -0.2030  0.3045  0.0191  -0.9421   0.0000   0.0000   0.0000   0.5481
  -1.800   0.6944   0.00926   0.00222  -0.2029  0.2946  0.0191  -0.9437   0.0000   0.0000   0.0000   0.5432
  -1.700   0.7052   0.00934   0.00223  -0.2028  0.2834  0.0190  -0.9510   0.0000   0.0000   0.0000   0.5385
  -1.600   0.7168   0.00936   0.00223  -0.2029  0.2778  0.0190  -0.9614   0.0000   0.0000   0.0000   0.5338
  -1.500   0.7283   0.00938   0.00223  -0.2030  0.2750  0.0189  -0.9723   0.0000   0.0000   0.0000   0.5292
  -1.400   0.7399   0.00939   0.00222  -0.2031  0.2725  0.0189  -0.9831   0.0000   0.0000   0.0000   0.5248
  -1.300   0.7493   0.00960   0.00231  -0.2028  0.2479  0.0191  -0.9968   0.0000   0.0000   0.0000   0.5208
  -1.200   0.7605   0.00964   0.00232  -0.2028  0.2431  0.0193  -1.0052   0.0000   0.0000   0.0000   0.5166
  -1.100   0.7718   0.00969   0.00234  -0.2028  0.2395  0.0196  -1.0125   0.0000   0.0000   0.0000   0.5126
  -1.000   0.7830   0.00973   0.00235  -0.2028  0.2358  0.0199  -1.0194   0.0000   0.0000   0.0000   0.5087
  -0.900   0.7943   0.00977   0.00236  -0.2029  0.2320  0.0201  -1.0266   0.0000   0.0000   0.0000   0.5049
  -0.800   0.8057   0.00980   0.00237  -0.2029  0.2276  0.0202  -1.0345   0.0000   0.0000   0.0000   0.5012
  -0.700   0.8172   0.00983   0.00238  -0.2030  0.2237  0.0202  -1.0435   0.0000   0.0000   0.0000   0.4976
  -0.600   0.8287   0.00984   0.00239  -0.2030  0.2219  0.0201  -1.0535   0.0000   0.0000   0.0000   0.4941
  -0.500   0.8402   0.00986   0.00241  -0.2031  0.2211  0.0200  -1.0638   0.0000   0.0000   0.0000   0.4906
  -0.400   0.8517   0.00988   0.00242  -0.2032  0.2203  0.0198  -1.0742   0.0000   0.0000   0.0000   0.4873
  -0.300   0.8631   0.00990   0.00244  -0.2032  0.2187  0.0197  -1.0848   0.0000   0.0000   0.0000   0.4840
  -0.200   0.8744   0.00993   0.00246  -0.2033  0.2160  0.0196  -1.0956   0.0000   0.0000   0.0000   0.4809
  -0.100   0.8834   0.01016   0.00259  -0.2029  0.1928  0.0195  -1.1098   0.0000   0.0000   0.0000   0.4779
   0.000   0.8941   0.01024   0.00264  -0.2028  0.1875  0.0195  -1.1210   0.0000   0.0000   0.0000   0.4750
   0.100   0.9051   0.01031   0.00268  -0.2028  0.1841  0.0194  -1.1320   0.0000   0.0000   0.0000   0.4720
   0.200   0.9161   0.01036   0.00272  -0.2027  0.1810  0.0193  -1.1428   0.0000   0.0000   0.0000   0.4692
   0.300   0.9272   0.01041   0.00275  -0.2027  0.1775  0.0193  -1.1535   0.0000   0.0000   0.0000   0.4664
   0.400   0.9383   0.01045   0.00278  -0.2027  0.1738  0.0192  -1.1642   0.0000   0.0000   0.0000   0.4636
   0.500   0.9495   0.01049   0.00282  -0.2027  0.1709  0.0192  -1.1747   0.0000   0.0000   0.0000   0.4609
   0.600   0.9608   0.01052   0.00285  -0.2028  0.1699  0.0192  -1.1851   0.0000   0.0000   0.0000   0.4583
   0.700   0.9721   0.01055   0.00288  -0.2028  0.1693  0.0193  -1.1956   0.0000   0.0000   0.0000   0.4558
   0.800   0.9833   0.01058   0.00291  -0.2028  0.1686  0.0195  -1.2060   0.0000   0.0000   0.0000   0.4532
   0.900   0.9945   0.01061   0.00295  -0.2028  0.1677  0.0199  -1.2164   0.0000   0.0000   0.0000   0.4508
   1.000   1.0056   0.01065   0.00299  -0.2028  0.1670  0.0258  -1.2268   0.0000   0.0000   0.0000   0.4484
   1.100   1.0171   0.01067   0.00306  -0.2029  0.1654  0.0351  -1.2403   0.0000   0.0000   0.0000   0.4460
   1.200   1.0283   0.01070   0.00310  -0.2029  0.1641  0.0367  -1.2554   0.0000   0.0000   0.0000   0.4438
   1.300   1.0374   0.01092   0.00324  -0.2026  0.1461  0.0375  -1.2738   0.0000   0.0000   0.0000   0.4415
   1.400   1.0482   0.01098   0.00328  -0.2025  0.1437  0.0380  -1.2873   0.0000   0.0000   0.0000   0.4393
   1.500   1.0589   0.01105   0.00333  -0.2024  0.1414  0.0383  -1.3001   0.0000   0.0000   0.0000   0.4372
   1.600   1.0696   0.01112   0.00339  -0.2024  0.1390  0.0393  -1.3120   0.0000   0.0000   0.0000   0.4351
   1.700   1.0803   0.01119   0.00345  -0.2023  0.1366  0.0409  -1.3233   0.0000   0.0000   0.0000   0.4330
   1.800   1.0910   0.01125   0.00350  -0.2022  0.1341  0.0428  -1.3350   0.0000   0.0000   0.0000   0.4309
   1.900   1.1018   0.01131   0.00355  -0.2022  0.1313  0.0453  -1.3474   0.0000   0.0000   0.0000   0.4289
   2.000   1.1126   0.01137   0.00360  -0.2021  0.1283  0.0477  -1.3607   0.0000   0.0000   0.0000   0.4270
   2.100   1.1235   0.01142   0.00366  -0.2021  0.1257  0.0500  -1.3745   0.0000   0.0000   0.0000   0.4250
   2.200   1.1349   0.01145   0.00371  -0.2022  0.1241  0.0628  -1.3892   0.0000   0.0000   0.0000   0.4232
   2.300   1.1460   0.01148   0.00377  -0.2022  0.1237  0.0772  -1.4065   0.0000   0.0000   0.0000   0.4213
   2.400   1.1578   0.01149   0.00382  -0.2024  0.1232  0.1022  -1.4253   0.0000   0.0000   0.0000   0.4195
   2.500   1.1700   0.01148   0.00388  -0.2027  0.1225  0.1428  -1.4446   0.0000   0.0000   0.0000   0.4178
   2.600   1.1814   0.01150   0.00393  -0.2028  0.1217  0.1621  -1.4634   0.0000   0.0000   0.0000   0.4161
   2.700   1.1934   0.01151   0.00399  -0.2030  0.1207  0.1921  -1.4828   0.0000   0.0000   0.0000   0.4145
   2.800   1.2041   0.01157   0.00405  -0.2030  0.1183  0.1985  -1.5020   0.0000   0.0000   0.0000   0.4128
   2.900   1.2129   0.01181   0.00424  -0.2026  0.1018  0.2159  -1.5224   0.0000   0.0000   0.0000   0.4111
   3.000   1.2237   0.01190   0.00434  -0.2027  0.0977  0.2469  -1.5390   0.0000   0.0000   0.0000   0.4095
   3.100   1.2340   0.01200   0.00444  -0.2026  0.0929  0.2620  -1.5605   0.0000   0.0000   0.0000   0.4079
   3.200   1.2459   0.01204   0.00454  -0.2029  0.0872  0.3038  -1.5834   0.0000   0.0000   0.0000   0.4065
   3.300   1.2565   0.01210   0.00461  -0.2028  0.0843  0.3128  -1.6060   0.0000   0.0000   0.0000   0.4049
   3.400   1.2680   0.01213   0.00470  -0.2030  0.0835  0.3368  -1.6315   0.0000   0.0000   0.0000   0.4034
   3.500   1.2795   0.01216   0.00478  -0.2032  0.0824  0.3669  -1.6567   0.0000   0.0000   0.0000   0.4020
   3.600   1.2902   0.01223   0.00486  -0.2031  0.0809  0.3786  -1.6810   0.0000   0.0000   0.0000   0.4005
   3.800   1.3097   0.01251   0.00514  -0.2027  0.0662  0.4040  -1.7317   0.0000   0.0000   0.0000   0.3975
   3.900   1.3224   0.01240   0.00509  -0.2030  0.0790  0.4036  -1.7506   0.0000   0.0000   0.0000   0.3961
   4.000   1.3329   0.01249   0.00521  -0.2030  0.0734  0.4243  -1.7828   0.0000   0.0000   0.0000   0.3947
   4.100   1.3417   0.01269   0.00538  -0.2026  0.0657  0.4328  -1.8134   0.0000   0.0000   0.0000   0.3933
   4.200   1.3517   0.01280   0.00548  -0.2024  0.0639  0.4423  -1.8462   0.0000   0.0000   0.0000   0.3919
   4.300   1.3619   0.01289   0.00558  -0.2023  0.0622  0.4548  -1.8795   0.0000   0.0000   0.0000   0.3905
   4.400   1.3720   0.01299   0.00567  -0.2021  0.0604  0.4636  -1.9127   0.0000   0.0000   0.0000   0.3892
   4.500   1.3821   0.01309   0.00577  -0.2020  0.0585  0.4716  -1.9459   0.0000   0.0000   0.0000   0.3878
   4.600   1.3923   0.01317   0.00588  -0.2018  0.0564  0.4839  -1.9797   0.0000   0.0000   0.0000   0.3865
   4.700   1.4024   0.01326   0.00598  -0.2017  0.0546  0.4922  -2.0132   0.0000   0.0000   0.0000   0.3852
   4.800   1.4124   0.01335   0.00607  -0.2015  0.0532  0.4982  -2.0468   0.0000   0.0000   0.0000   0.3839
   4.900   1.4226   0.01343   0.00617  -0.2014  0.0518  0.5099  -2.0809   0.0000   0.0000   0.0000   0.3826
   5.000   1.4330   0.01351   0.00628  -0.2013  0.0515  0.5242  -2.1164   0.0000   0.0000   0.0000   0.3814
   5.100   1.4429   0.01360   0.00638  -0.2011  0.0512  0.5319  -2.1516   0.0000   0.0000   0.0000   0.3801
   5.200   1.4529   0.01369   0.00650  -0.2009  0.0506  0.5422  -2.1870   0.0000   0.0000   0.0000   0.3789
   5.300   1.4627   0.01379   0.00661  -0.2007  0.0498  0.5485  -2.2223   0.0000   0.0000   0.0000   0.3777
   5.400   1.4722   0.01390   0.00672  -0.2004  0.0486  0.5519  -2.2574   0.0000   0.0000   0.0000   0.3764
   5.500   1.4815   0.01402   0.00684  -0.2001  0.0472  0.5553  -2.2923   0.0000   0.0000   0.0000   0.3752
   5.600   1.4907   0.01415   0.00697  -0.1998  0.0458  0.5585  -2.3271   0.0000   0.0000   0.0000   0.3740
   5.700   1.4998   0.01428   0.00709  -0.1994  0.0444  0.5616  -2.3619   0.0000   0.0000   0.0000   0.3728
   5.800   1.5087   0.01441   0.00722  -0.1991  0.0429  0.5642  -2.3964   0.0000   0.0000   0.0000   0.3716
   5.900   1.5177   0.01455   0.00735  -0.1987  0.0412  0.5684  -2.4310   0.0000   0.0000   0.0000   0.3704
   6.000   1.5270   0.01468   0.00752  -0.1984  0.0383  0.5825  -2.4661   0.0000   0.0000   0.0000   0.3693
   6.100   1.5362   0.01479   0.00765  -0.1981  0.0374  0.5905  -2.5037   0.0000   0.0000   0.0000   0.3682
   6.200   1.5453   0.01491   0.00776  -0.1978  0.0368  0.5966  -2.5400   0.0000   0.0000   0.0000   0.3670
   6.300   1.5545   0.01502   0.00789  -0.1975  0.0362  0.6072  -2.5767   0.0000   0.0000   0.0000   0.3659
   6.400   1.5635   0.01514   0.00803  -0.1971  0.0352  0.6168  -2.6135   0.0000   0.0000   0.0000   0.3648
   6.500   1.5723   0.01527   0.00816  -0.1967  0.0343  0.6232  -2.6499   0.0000   0.0000   0.0000   0.3637
   6.600   1.5764   0.01566   0.00848  -0.1955  0.0253  0.6268  -2.6860   0.0000   0.0000   0.0000   0.3624
   6.700   1.5821   0.01589   0.00868  -0.1945  0.0224  0.6293  -2.7087   0.0000   0.0000   0.0000   0.3612
   6.800   1.5882   0.01609   0.00887  -0.1936  0.0196  0.6365  -2.7295   0.0000   0.0000   0.0000   0.3600
   6.900   1.5956   0.01623   0.00902  -0.1930  0.0171  0.6435  -2.7584   0.0000   0.0000   0.0000   0.3588
   7.000   1.6031   0.01637   0.00918  -0.1923  0.0164  0.6493  -2.7908   0.0000   0.0000   0.0000   0.3577
   7.100   1.6106   0.01651   0.00932  -0.1917  0.0161  0.6542  -2.8241   0.0000   0.0000   0.0000   0.3566
   7.200   1.6090   0.01713   0.00992  -0.1894  0.0055  0.6575  -2.8490   0.0000   0.0000   0.0000   0.3551
   7.300   1.6157   0.01731   0.01010  -0.1887  0.0044  0.6607  -2.8809   0.0000   0.0000   0.0000   0.3540
   7.400   1.6225   0.01750   0.01030  -0.1879  0.0042  0.6678  -2.9143   0.0000   0.0000   0.0000   0.3529
   7.500   1.6293   0.01769   0.01051  -0.1872  0.0040  0.6737  -2.9475   0.0000   0.0000   0.0000   0.3518
   7.600   1.6360   0.01788   0.01071  -0.1865  0.0038  0.6787  -2.9806   0.0000   0.0000   0.0000   0.3507
   7.700   1.6428   0.01806   0.01090  -0.1858  0.0036  0.6831  -3.0134   0.0000   0.0000   0.0000   0.3496
   7.800   1.6496   0.01825   0.01109  -0.1851  0.0034  0.6869  -3.0457   0.0000   0.0000   0.0000   0.3486
   7.900   1.6564   0.01843   0.01128  -0.1843  0.0032  0.6899  -3.0780   0.0000   0.0000   0.0000   0.3475
   8.000   1.6633   0.01862   0.01147  -0.1837  0.0029  0.6937  -3.1105   0.0000   0.0000   0.0000   0.3465
   8.100   1.6704   0.01880   0.01167  -0.1831  0.0026  0.6999  -3.1434   0.0000   0.0000   0.0000   0.3454
   8.200   1.6774   0.01899   0.01188  -0.1824  0.0023  0.7055  -3.1764   0.0000   0.0000   0.0000   0.3444
   8.300   1.6843   0.01918   0.01208  -0.1818  0.0020  0.7107  -3.2094   0.0000   0.0000   0.0000   0.3434
   8.400   1.6910   0.01939   0.01229  -0.1811  0.0016  0.7156  -3.2423   0.0000   0.0000   0.0000   0.3424
   8.500   1.6975   0.01961   0.01255  -0.1804  0.0020  0.7200  -3.2758   0.0000   0.0000   0.0000   0.3414
   8.600   1.7041   0.01982   0.01278  -0.1797  0.0017  0.7271  -3.3089   0.0000   0.0000   0.0000   0.3404
   9.100   1.7348   0.02107   0.01414  -0.1761  0.0013  0.7665  -3.4720   0.0000   0.0000   0.0000   0.3356
   9.200   1.7407   0.02135   0.01444  -0.1754  0.0013  0.7750  -3.5044   0.0000   0.0000   0.0000   0.3346
   9.300   1.7467   0.02162   0.01475  -0.1747  0.0013  0.7850  -3.5374   0.0000   0.0000   0.0000   0.3337
   9.400   1.7528   0.02191   0.01507  -0.1740  0.0013  0.7965  -3.5706   0.0000   0.0000   0.0000   0.3328
   9.500   1.7586   0.02221   0.01540  -0.1733  0.0013  0.8066  -3.6030   0.0000   0.0000   0.0000   0.3319
   9.600   1.7644   0.02251   0.01574  -0.1726  0.0013  0.8195  -3.6362   0.0000   0.0000   0.0000   0.3310
   9.700   1.7702   0.02282   0.01609  -0.1719  0.0013  0.8322  -3.6777   0.0000   0.0000   0.0000   0.3301
   9.800   1.7761   0.02314   0.01645  -0.1713  0.0013  0.8493  -3.7196   0.0000   0.0000   0.0000   0.3292
   9.900   1.7818   0.02346   0.01683  -0.1707  0.0013  0.8733  -3.7610   0.0000   0.0000   0.0000   0.3283
  10.200   1.7925   0.02438   0.01795  -0.1675  0.0013  1.0000  -3.8680   0.0000   0.0000   0.0000   0.3254
  10.300   1.7971   0.02479   0.01838  -0.1667  0.0013  1.0000  -3.9056   0.0000   0.0000   0.0000   0.3245
  10.400   1.8012   0.02522   0.01884  -0.1659  0.0013  1.0000  -3.9415   0.0000   0.0000   0.0000   0.3237
  10.500   1.8053   0.02567   0.01932  -0.1651  0.0013  1.0000  -3.9755   0.0000   0.0000   0.0000   0.3228
  11.500   1.8419   0.03094   0.02485  -0.1574  0.0018  1.0000  -4.3284   0.0000   0.0000   0.0000   0.3147
  11.600   1.8450   0.03156   0.02549  -0.1567  0.0019  1.0000  -4.3644   0.0000   0.0000   0.0000   0.3140
  11.700   1.8484   0.03217   0.02612  -0.1560  0.0020  1.0000  -4.4271   0.0000   0.0000   0.0000   0.3133
  11.800   1.8518   0.03277   0.02674  -0.1553  0.0021  1.0000  -4.4962   0.0000   0.0000   0.0000   0.3125
  11.900   1.8548   0.03343   0.02742  -0.1546  0.0021  1.0000  -4.5638   0.0000   0.0000   0.0000   0.3118
  12.000   1.8569   0.03416   0.02818  -0.1539  0.0022  1.0000  -4.6273   0.0000   0.0000   0.0000   0.3111
  12.100   1.8592   0.03489   0.02893  -0.1532  0.0024  1.0000  -4.6909   0.0000   0.0000   0.0000   0.3104
  12.200   1.8616   0.03562   0.02969  -0.1525  0.0025  1.0000  -4.7531   0.0000   0.0000   0.0000   0.3097
  12.300   1.8637   0.03638   0.03048  -0.1518  0.0027  1.0000  -4.8091   0.0000   0.0000   0.0000   0.3090
