xflr5 v6.59

 Calculated polar for: WORTMANN FX 63-137 AIRFOIL

 1 1 Reynolds number fixed          Mach number fixed         

 xtrf =   1.000 (top)        1.000 (bottom)
 Mach =   0.000     Re =     0.400 e 6     Ncrit =   9.000

  alpha     CL        CD       CDp       Cm    Top Xtr Bot Xtr   Cpmin    Chinge    XCp    
 ------- -------- --------- --------- -------- ------- ------- -------- --------- ---------
 -20.000  -0.4194   0.22997   0.22686  -0.0182  1.0000  0.0114  -1.3435   0.0000   0.0000   0.0000   0.1757
 -19.900  -0.4164   0.22893   0.22583  -0.0187  1.0000  0.0115  -1.3345   0.0000   0.0000   0.0000   0.1742
 -19.800  -0.4133   0.22790   0.22480  -0.0192  1.0000  0.0116  -1.3261   0.0000   0.0000   0.0000   0.1726
 -19.700  -0.4102   0.22688   0.22378  -0.0198  1.0000  0.0117  -1.3181   0.0000   0.0000   0.0000   0.1710
 -19.600  -0.4072   0.22585   0.22276  -0.0203  1.0000  0.0119  -1.3105   0.0000   0.0000   0.0000   0.1694
 -19.500  -0.4041   0.22483   0.22174  -0.0208  1.0000  0.0120  -1.3041   0.0000   0.0000   0.0000   0.1677
 -19.400  -0.4011   0.22381   0.22072  -0.0213  1.0000  0.0121  -1.2982   0.0000   0.0000   0.0000   0.1661
 -19.300  -0.3981   0.22278   0.21970  -0.0218  1.0000  0.0123  -1.2927   0.0000   0.0000   0.0000   0.1644
 -19.200  -0.3951   0.22175   0.21867  -0.0223  1.0000  0.0124  -1.2876   0.0000   0.0000   0.0000   0.1627
 -19.100  -0.3921   0.22071   0.21763  -0.0228  1.0000  0.0125  -1.2829   0.0000   0.0000   0.0000   0.1610
 -19.000  -0.3891   0.21965   0.21658  -0.0233  1.0000  0.0127  -1.2786   0.0000   0.0000   0.0000   0.1592
 -18.900  -0.3861   0.21857   0.21551  -0.0238  1.0000  0.0129  -1.2749   0.0000   0.0000   0.0000   0.1575
 -18.800  -0.3832   0.21747   0.21441  -0.0243  1.0000  0.0130  -1.2715   0.0000   0.0000   0.0000   0.1557
 -18.700  -0.3803   0.21633   0.21327  -0.0248  1.0000  0.0132  -1.2687   0.0000   0.0000   0.0000   0.1540
 -18.600  -0.3774   0.21518   0.21213  -0.0253  1.0000  0.0134  -1.2663   0.0000   0.0000   0.0000   0.1522
 -18.500  -0.3746   0.21403   0.21098  -0.0258  1.0000  0.0136  -1.2642   0.0000   0.0000   0.0000   0.1504
 -18.400  -0.3717   0.21287   0.20982  -0.0262  1.0000  0.0138  -1.2627   0.0000   0.0000   0.0000   0.1486
 -18.300  -0.3689   0.21170   0.20866  -0.0267  1.0000  0.0140  -1.2615   0.0000   0.0000   0.0000   0.1468
 -18.200  -0.3661   0.21054   0.20750  -0.0272  1.0000  0.0143  -1.2609   0.0000   0.0000   0.0000   0.1449
 -18.100  -0.3633   0.20937   0.20634  -0.0276  1.0000  0.0145  -1.2609   0.0000   0.0000   0.0000   0.1430
 -18.000  -0.3604   0.20820   0.20517  -0.0281  1.0000  0.0148  -1.2617   0.0000   0.0000   0.0000   0.1411
 -17.900  -0.3576   0.20703   0.20400  -0.0286  1.0000  0.0150  -1.2633   0.0000   0.0000   0.0000   0.1392
 -17.800  -0.3548   0.20585   0.20284  -0.0290  1.0000  0.0153  -1.2662   0.0000   0.0000   0.0000   0.1372
 -17.700  -0.3519   0.20469   0.20168  -0.0295  1.0000  0.0156  -1.2708   0.0000   0.0000   0.0000   0.1351
 -17.600  -0.3490   0.20354   0.20053  -0.0300  1.0000  0.0159  -1.2774   0.0000   0.0000   0.0000   0.1330
 -17.500  -0.3461   0.20242   0.19941  -0.0305  1.0000  0.0161  -1.2857   0.0000   0.0000   0.0000   0.1307
 -17.400  -0.3433   0.20131   0.19831  -0.0310  1.0000  0.0163  -1.2948   0.0000   0.0000   0.0000   0.1284
 -17.300  -0.3405   0.20021   0.19722  -0.0316  1.0000  0.0165  -1.3038   0.0000   0.0000   0.0000   0.1261
 -17.200  -0.3379   0.19912   0.19613  -0.0321  1.0000  0.0166  -1.3124   0.0000   0.0000   0.0000   0.1238
 -17.100  -0.3353   0.19802   0.19504  -0.0326  1.0000  0.0166  -1.3207   0.0000   0.0000   0.0000   0.1215
 -17.000  -0.3328   0.19692   0.19394  -0.0331  1.0000  0.0167  -1.3287   0.0000   0.0000   0.0000   0.1193
 -16.900  -0.3303   0.19580   0.19283  -0.0336  1.0000  0.0168  -1.3365   0.0000   0.0000   0.0000   0.1171
 -16.800  -0.3279   0.19468   0.19172  -0.0340  1.0000  0.0168  -1.3442   0.0000   0.0000   0.0000   0.1149
 -16.700  -0.3255   0.19355   0.19059  -0.0345  1.0000  0.0169  -1.3518   0.0000   0.0000   0.0000   0.1127
 -16.600  -0.3232   0.19242   0.18946  -0.0349  1.0000  0.0169  -1.3594   0.0000   0.0000   0.0000   0.1105
 -16.500  -0.3209   0.19127   0.18833  -0.0354  1.0000  0.0169  -1.3671   0.0000   0.0000   0.0000   0.1084
 -16.400  -0.3187   0.19012   0.18718  -0.0358  1.0000  0.0169  -1.3748   0.0000   0.0000   0.0000   0.1063
 -16.300  -0.3165   0.18897   0.18603  -0.0362  1.0000  0.0170  -1.3826   0.0000   0.0000   0.0000   0.1041
 -16.200  -0.3143   0.18780   0.18487  -0.0367  1.0000  0.0170  -1.3905   0.0000   0.0000   0.0000   0.1020
 -16.100  -0.3121   0.18663   0.18371  -0.0371  1.0000  0.0170  -1.3985   0.0000   0.0000   0.0000   0.0999
 -16.000  -0.3100   0.18546   0.18254  -0.0374  1.0000  0.0170  -1.4066   0.0000   0.0000   0.0000   0.0979
 -15.900  -0.3080   0.18428   0.18137  -0.0378  1.0000  0.0170  -1.4148   0.0000   0.0000   0.0000   0.0958
 -15.800  -0.3059   0.18309   0.18019  -0.0382  1.0000  0.0171  -1.4232   0.0000   0.0000   0.0000   0.0938
 -15.700  -0.3039   0.18189   0.17897  -0.0386  1.0000  0.0171  -1.4311   0.0000   0.0000   0.0000   0.0918
 -15.600  -0.3020   0.18070   0.17778  -0.0389  1.0000  0.0171  -1.4397   0.0000   0.0000   0.0000   0.0898
 -15.500  -0.2999   0.17949   0.17659  -0.0393  1.0000  0.0171  -1.4468   0.0000   0.0000   0.0000   0.0878
 -15.400  -0.2979   0.17829   0.17539  -0.0396  1.0000  0.0171  -1.4541   0.0000   0.0000   0.0000   0.0858
 -15.300  -0.2959   0.17708   0.17418  -0.0399  1.0000  0.0171  -1.4616   0.0000   0.0000   0.0000   0.0839
 -15.200  -0.2940   0.17586   0.17297  -0.0402  1.0000  0.0171  -1.4693   0.0000   0.0000   0.0000   0.0820
 -15.100  -0.2921   0.17464   0.17176  -0.0405  1.0000  0.0171  -1.4773   0.0000   0.0000   0.0000   0.0801
 -15.000  -0.2902   0.17342   0.17055  -0.0407  1.0000  0.0171  -1.4853   0.0000   0.0000   0.0000   0.0783
 -14.900  -0.2883   0.17220   0.16934  -0.0410  1.0000  0.0171  -1.4933   0.0000   0.0000   0.0000   0.0765
 -14.800  -0.2865   0.17097   0.16812  -0.0413  1.0000  0.0172  -1.5013   0.0000   0.0000   0.0000   0.0747
 -14.700  -0.2847   0.16974   0.16690  -0.0415  1.0000  0.0172  -1.5095   0.0000   0.0000   0.0000   0.0730
 -14.600  -0.2829   0.16852   0.16568  -0.0417  1.0000  0.0172  -1.5179   0.0000   0.0000   0.0000   0.0713
 -14.500  -0.2812   0.16729   0.16446  -0.0419  1.0000  0.0172  -1.5267   0.0000   0.0000   0.0000   0.0697
 -14.400  -0.2796   0.16606   0.16324  -0.0421  1.0000  0.0172  -1.5359   0.0000   0.0000   0.0000   0.0681
 -14.300  -0.2780   0.16483   0.16202  -0.0423  1.0000  0.0172  -1.5453   0.0000   0.0000   0.0000   0.0666
 -14.200  -0.2764   0.16361   0.16080  -0.0425  1.0000  0.0172  -1.5552   0.0000   0.0000   0.0000   0.0651
 -14.100  -0.2750   0.16238   0.15959  -0.0427  1.0000  0.0172  -1.5654   0.0000   0.0000   0.0000   0.0637
 -14.000  -0.2735   0.16116   0.15838  -0.0428  1.0000  0.0172  -1.5761   0.0000   0.0000   0.0000   0.0624
 -13.900  -0.2722   0.15995   0.15717  -0.0430  1.0000  0.0172  -1.5873   0.0000   0.0000   0.0000   0.0611
 -13.800  -0.2709   0.15873   0.15596  -0.0431  1.0000  0.0172  -1.5988   0.0000   0.0000   0.0000   0.0600
 -13.700  -0.2697   0.15751   0.15475  -0.0432  1.0000  0.0172  -1.6109   0.0000   0.0000   0.0000   0.0589
 -13.600  -0.2685   0.15629   0.15355  -0.0433  1.0000  0.0172  -1.6235   0.0000   0.0000   0.0000   0.0580
 -13.500  -0.2674   0.15507   0.15233  -0.0434  1.0000  0.0172  -1.6367   0.0000   0.0000   0.0000   0.0571
 -13.400  -0.2664   0.15385   0.15112  -0.0434  1.0000  0.0172  -1.6504   0.0000   0.0000   0.0000   0.0565
 -13.300  -0.2655   0.15263   0.14992  -0.0435  1.0000  0.0172  -1.6650   0.0000   0.0000   0.0000   0.0559
 -13.200  -0.2648   0.15142   0.14872  -0.0435  1.0000  0.0172  -1.6803   0.0000   0.0000   0.0000   0.0556
 -13.100  -0.2642   0.15023   0.14754  -0.0434  1.0000  0.0172  -1.6965   0.0000   0.0000   0.0000   0.0556
 -13.000  -0.2638   0.14905   0.14637  -0.0433  1.0000  0.0172  -1.7135   0.0000   0.0000   0.0000   0.0558
 -12.900  -0.2636   0.14789   0.14522  -0.0432  1.0000  0.0172  -1.7316   0.0000   0.0000   0.0000   0.0563
 -12.800  -0.2636   0.14675   0.14411  -0.0430  1.0000  0.0172  -1.7506   0.0000   0.0000   0.0000   0.0573
 -12.700  -0.2641   0.14566   0.14304  -0.0428  1.0000  0.0172  -1.7705   0.0000   0.0000   0.0000   0.0589
 -12.600  -0.2649   0.14463   0.14202  -0.0424  1.0000  0.0173  -1.7913   0.0000   0.0000   0.0000   0.0612
 -12.500  -0.2664   0.14368   0.14109  -0.0419  1.0000  0.0173  -1.8128   0.0000   0.0000   0.0000   0.0643
 -12.400  -0.2608   0.14165   0.13906  -0.0435  0.9996  0.0173  -1.8417   0.0000   0.0000   0.0000   0.0542
 -12.300  -0.2553   0.13963   0.13704  -0.0452  0.9991  0.0173  -1.8726   0.0000   0.0000   0.0000   0.0436
 -12.200  -0.2500   0.13762   0.13503  -0.0468  0.9986  0.0173  -1.9028   0.0000   0.0000   0.0000   0.0327
 -12.100  -0.2446   0.13563   0.13304  -0.0484  0.9980  0.0173  -1.9304   0.0000   0.0000   0.0000   0.0213
 -12.000  -0.2392   0.13368   0.13109  -0.0501  0.9974  0.0173  -1.9535   0.0000   0.0000   0.0000   0.0095
 -11.900  -0.2338   0.13177   0.12917  -0.0517  0.9968  0.0174  -1.9719   0.0000   0.0000   0.0000  -0.0028
 -11.800  -0.2284   0.12988   0.12728  -0.0533  0.9962  0.0174  -1.9866   0.0000   0.0000   0.0000  -0.0158
 -11.400  -0.2158   0.12082   0.11825  -0.0583  0.9935  0.0188  -2.0546   0.0000   0.0000   0.0000  -0.0544
 -11.300  -0.2079   0.11981   0.11724  -0.0593  0.9928  0.0191  -1.9888   0.0000   0.0000   0.0000  -0.0703
 -11.200  -0.1999   0.11888   0.11630  -0.0604  0.9921  0.0195  -1.9197   0.0000   0.0000   0.0000  -0.0881
 -11.100  -0.1922   0.11787   0.11529  -0.0616  0.9914  0.0200  -1.8596   0.0000   0.0000   0.0000  -0.1075
 -11.000  -0.1848   0.11675   0.11417  -0.0629  0.9908  0.0207  -1.8104   0.0000   0.0000   0.0000  -0.1288
 -10.900  -0.1780   0.11548   0.11290  -0.0643  0.9897  0.0214  -1.7741   0.0000   0.0000   0.0000  -0.1506
 -10.800  -0.1719   0.11406   0.11149  -0.0657  0.9882  0.0222  -1.7509   0.0000   0.0000   0.0000  -0.1727
 -10.700  -0.1659   0.11247   0.10989  -0.0674  0.9868  0.0232  -1.7418   0.0000   0.0000   0.0000  -0.1976
 -10.600  -0.1604   0.11062   0.10804  -0.0694  0.9855  0.0243  -1.7560   0.0000   0.0000   0.0000  -0.2253
 -10.500  -0.1555   0.10825   0.10568  -0.0741  0.9839  0.0264  -1.8813   0.0000   0.0000   0.0000  -0.2711
  -9.000  -0.1970   0.03119   0.02785  -0.1572  0.9217  0.0159  -4.9011   0.0000   0.0000   0.0000  -0.5848
  -8.900  -0.1783   0.02761   0.02392  -0.1662  0.9178  0.0162  -4.9347   0.0000   0.0000   0.0000  -0.7222
  -8.800  -0.1620   0.02595   0.02207  -0.1702  0.9147  0.0165  -4.8899   0.0000   0.0000   0.0000  -0.8440
  -8.700  -0.1516   0.02506   0.02106  -0.1716  0.9094  0.0167  -4.8346   0.0000   0.0000   0.0000  -0.9287
  -8.600  -0.1376   0.02433   0.02022  -0.1734  0.9056  0.0169  -4.7543   0.0000   0.0000   0.0000  -1.0604
  -8.500  -0.1225   0.02376   0.01955  -0.1752  0.9024  0.0171  -4.6597   0.0000   0.0000   0.0000  -1.2356
  -8.400  -0.1067   0.02333   0.01904  -0.1768  0.8995  0.0172  -4.5553   0.0000   0.0000   0.0000  -1.4702
  -8.300  -0.0905   0.02304   0.01867  -0.1784  0.8969  0.0174  -4.4437   0.0000   0.0000   0.0000  -1.7936
  -8.200  -0.0811   0.02067   0.01596  -0.1810  0.8918  0.0179  -4.4848   0.0000   0.0000   0.0000  -2.0622
  -8.100  -0.0691   0.01931   0.01437  -0.1826  0.8877  0.0182  -4.4581   0.0000   0.0000   0.0000  -2.4871
  -8.000  -0.0559   0.01846   0.01337  -0.1839  0.8842  0.0185  -4.3966   0.0000   0.0000   0.0000  -3.1539
  -7.900  -0.0421   0.01781   0.01259  -0.1850  0.8810  0.0187  -4.3209   0.0000   0.0000   0.0000  -4.3000
  -7.800  -0.0278   0.01726   0.01191  -0.1862  0.8781  0.0189  -4.2385   0.0000   0.0000   0.0000  -6.6790
  -7.700  -0.0141   0.01678   0.01133  -0.1871  0.8751  0.0192  -4.1548   0.0000   0.0000   0.0000  -13.4352
  -7.600  -0.0041   0.01645   0.01093  -0.1872  0.8712  0.0192  -4.0808   0.0000   0.0000   0.0000  -47.4206
  -7.500   0.0070   0.01613   0.01055  -0.1875  0.8673  0.0192  -4.0018   0.0000   0.0000   0.0000  27.7378
  -7.400   0.0191   0.01583   0.01018  -0.1879  0.8636  0.0191  -3.9185   0.0000   0.0000   0.0000  10.4001
  -7.300   0.0317   0.01554   0.00981  -0.1884  0.8602  0.0191  -3.8324   0.0000   0.0000   0.0000   6.3700
  -7.200   0.0448   0.01527   0.00946  -0.1890  0.8571  0.0191  -3.7442   0.0000   0.0000   0.0000   4.5937
  -7.100   0.0583   0.01502   0.00913  -0.1897  0.8542  0.0191  -3.6544   0.0000   0.0000   0.0000   3.6002
  -7.000   0.0698   0.01479   0.00885  -0.1900  0.8513  0.0191  -3.5719   0.0000   0.0000   0.0000   3.0522
  -6.900   0.0809   0.01457   0.00856  -0.1901  0.8482  0.0192  -3.4886   0.0000   0.0000   0.0000   2.6694
  -6.800   0.0924   0.01436   0.00830  -0.1904  0.8450  0.0192  -3.4069   0.0000   0.0000   0.0000   2.3700
  -6.700   0.1043   0.01415   0.00804  -0.1907  0.8420  0.0192  -3.3237   0.0000   0.0000   0.0000   2.1291
  -6.600   0.1166   0.01396   0.00779  -0.1911  0.8391  0.0193  -3.2397   0.0000   0.0000   0.0000   1.9336
  -6.500   0.1292   0.01377   0.00755  -0.1915  0.8363  0.0193  -3.1550   0.0000   0.0000   0.0000   1.7724
  -6.400   0.1421   0.01359   0.00732  -0.1920  0.8336  0.0194  -3.0698   0.0000   0.0000   0.0000   1.6375
  -6.300   0.1552   0.01343   0.00709  -0.1926  0.8310  0.0195  -2.9842   0.0000   0.0000   0.0000   1.5229
  -6.200   0.1676   0.01327   0.00690  -0.1930  0.8285  0.0196  -2.9020   0.0000   0.0000   0.0000   1.4309
  -6.100   0.1790   0.01311   0.00672  -0.1931  0.8261  0.0197  -2.8237   0.0000   0.0000   0.0000   1.3563
  -6.000   0.1906   0.01296   0.00654  -0.1934  0.8235  0.0199  -2.7449   0.0000   0.0000   0.0000   1.2894
  -5.900   0.2025   0.01282   0.00637  -0.1936  0.8210  0.0200  -2.6660   0.0000   0.0000   0.0000   1.2295
  -5.800   0.2144   0.01269   0.00622  -0.1939  0.8184  0.0202  -2.5871   0.0000   0.0000   0.0000   1.1757
  -5.700   0.2266   0.01257   0.00607  -0.1942  0.8157  0.0205  -2.5078   0.0000   0.0000   0.0000   1.1269
  -5.600   0.2389   0.01246   0.00593  -0.1945  0.8131  0.0208  -2.4283   0.0000   0.0000   0.0000   1.0828
  -5.500   0.2513   0.01237   0.00580  -0.1949  0.8105  0.0211  -2.3486   0.0000   0.0000   0.0000   1.0427
  -5.400   0.2638   0.01229   0.00570  -0.1952  0.8077  0.0214  -2.2901   0.0000   0.0000   0.0000   1.0061
  -5.300   0.2765   0.01225   0.00562  -0.1956  0.8048  0.0219  -2.2304   0.0000   0.0000   0.0000   0.9724
  -5.200   0.2878   0.01218   0.00556  -0.1956  0.8022  0.0223  -2.1729   0.0000   0.0000   0.0000   0.9441
  -5.100   0.2989   0.01213   0.00550  -0.1957  0.7993  0.0227  -2.1153   0.0000   0.0000   0.0000   0.9181
  -5.000   0.3101   0.01207   0.00544  -0.1957  0.7962  0.0231  -2.0580   0.0000   0.0000   0.0000   0.8938
  -4.900   0.3215   0.01202   0.00538  -0.1958  0.7930  0.0235  -2.0016   0.0000   0.0000   0.0000   0.8710
  -4.800   0.3331   0.01196   0.00530  -0.1959  0.7895  0.0239  -1.9463   0.0000   0.0000   0.0000   0.8494
  -4.700   0.3449   0.01191   0.00521  -0.1961  0.7859  0.0243  -1.8921   0.0000   0.0000   0.0000   0.8290
  -4.600   0.3570   0.01186   0.00512  -0.1963  0.7822  0.0246  -1.8387   0.0000   0.0000   0.0000   0.8098
  -4.500   0.3696   0.01183   0.00503  -0.1966  0.7780  0.0250  -1.7855   0.0000   0.0000   0.0000   0.7913
  -4.400   0.3806   0.01174   0.00495  -0.1966  0.7748  0.0253  -1.7368   0.0000   0.0000   0.0000   0.7755
  -4.300   0.3915   0.01167   0.00485  -0.1966  0.7711  0.0257  -1.6871   0.0000   0.0000   0.0000   0.7605
  -4.200   0.4030   0.01159   0.00474  -0.1966  0.7671  0.0259  -1.6401   0.0000   0.0000   0.0000   0.7460
  -4.100   0.4145   0.01152   0.00465  -0.1967  0.7629  0.0262  -1.5909   0.0000   0.0000   0.0000   0.7322
  -4.000   0.4256   0.01153   0.00463  -0.1967  0.7588  0.0267  -1.5347   0.0000   0.0000   0.0000   0.7192
  -3.900   0.4388   0.01133   0.00438  -0.1972  0.7548  0.0278  -1.4910   0.0000   0.0000   0.0000   0.7062
  -3.800   0.4518   0.01121   0.00420  -0.1977  0.7508  0.0293  -1.4417   0.0000   0.0000   0.0000   0.6940
  -3.700   0.4632   0.01115   0.00416  -0.1978  0.7476  0.0306  -1.3862   0.0000   0.0000   0.0000   0.6831
  -3.600   0.4745   0.01110   0.00412  -0.1979  0.7443  0.0317  -1.3353   0.0000   0.0000   0.0000   0.6727
  -3.500   0.4863   0.01103   0.00404  -0.1980  0.7408  0.0323  -1.2904   0.0000   0.0000   0.0000   0.6625
  -3.400   0.4984   0.01095   0.00393  -0.1983  0.7372  0.0325  -1.2505   0.0000   0.0000   0.0000   0.6528
  -3.300   0.5106   0.01088   0.00381  -0.1985  0.7338  0.0327  -1.2119   0.0000   0.0000   0.0000   0.6434
  -3.200   0.5228   0.01081   0.00370  -0.1987  0.7305  0.0328  -1.1732   0.0000   0.0000   0.0000   0.6344
  -3.100   0.5350   0.01076   0.00360  -0.1989  0.7274  0.0330  -1.1346   0.0000   0.0000   0.0000   0.6259
  -3.000   0.5472   0.01072   0.00350  -0.1991  0.7243  0.0333  -1.0961   0.0000   0.0000   0.0000   0.6177
  -2.900   0.5596   0.01069   0.00343  -0.1994  0.7212  0.0335  -1.0575   0.0000   0.0000   0.0000   0.6098
  -2.800   0.5716   0.01063   0.00335  -0.1996  0.7191  0.0339  -1.0197   0.0000   0.0000   0.0000   0.6024
  -2.700   0.5837   0.01057   0.00329  -0.1998  0.7169  0.0343  -0.9819   0.0000   0.0000   0.0000   0.5953
  -2.600   0.5957   0.01051   0.00322  -0.1999  0.7146  0.0348  -0.9443   0.0000   0.0000   0.0000   0.5884
  -2.500   0.6077   0.01047   0.00316  -0.2001  0.7121  0.0354  -0.9068   0.0000   0.0000   0.0000   0.5819
  -2.400   0.6197   0.01043   0.00311  -0.2003  0.7095  0.0361  -0.8772   0.0000   0.0000   0.0000   0.5755
  -2.300   0.6317   0.01040   0.00302  -0.2004  0.7067  0.0370  -0.8858   0.0000   0.0000   0.0000   0.5694
  -2.200   0.6435   0.01038   0.00297  -0.2005  0.7040  0.0376  -0.8944   0.0000   0.0000   0.0000   0.5636
  -2.100   0.6553   0.01036   0.00292  -0.2006  0.7012  0.0382  -0.9030   0.0000   0.0000   0.0000   0.5579
  -2.000   0.6671   0.01035   0.00288  -0.2007  0.6984  0.0391  -0.9116   0.0000   0.0000   0.0000   0.5525
  -1.900   0.6789   0.01034   0.00283  -0.2009  0.6955  0.0409  -0.9203   0.0000   0.0000   0.0000   0.5472
  -1.800   0.6908   0.01033   0.00278  -0.2010  0.6927  0.0441  -0.9290   0.0000   0.0000   0.0000   0.5421
  -1.700   0.7028   0.01030   0.00275  -0.2012  0.6901  0.0481  -0.9377   0.0000   0.0000   0.0000   0.5372
  -1.600   0.7147   0.01027   0.00273  -0.2013  0.6878  0.0497  -0.9464   0.0000   0.0000   0.0000   0.5325
  -1.500   0.7264   0.01025   0.00271  -0.2015  0.6852  0.0511  -0.9564   0.0000   0.0000   0.0000   0.5279
  -1.400   0.7382   0.01024   0.00269  -0.2016  0.6826  0.0601  -0.9665   0.0000   0.0000   0.0000   0.5235
  -1.300   0.7497   0.01024   0.00268  -0.2016  0.6798  0.0616  -0.9766   0.0000   0.0000   0.0000   0.5192
  -1.200   0.7612   0.01025   0.00266  -0.2017  0.6770  0.0632  -0.9866   0.0000   0.0000   0.0000   0.5150
  -1.100   0.7726   0.01026   0.00265  -0.2017  0.6741  0.0646  -0.9966   0.0000   0.0000   0.0000   0.5110
  -1.000   0.7840   0.01027   0.00263  -0.2017  0.6712  0.0657  -1.0067   0.0000   0.0000   0.0000   0.5070
  -0.900   0.7953   0.01029   0.00262  -0.2017  0.6682  0.0667  -1.0167   0.0000   0.0000   0.0000   0.5032
  -0.800   0.8066   0.01032   0.00262  -0.2017  0.6652  0.0676  -1.0267   0.0000   0.0000   0.0000   0.4995
  -0.700   0.8180   0.01035   0.00262  -0.2018  0.6621  0.0696  -1.0367   0.0000   0.0000   0.0000   0.4959
  -0.600   0.8295   0.01036   0.00262  -0.2018  0.6596  0.0724  -1.0469   0.0000   0.0000   0.0000   0.4924
  -0.500   0.8413   0.01034   0.00263  -0.2020  0.6574  0.0761  -1.0571   0.0000   0.0000   0.0000   0.4890
  -0.400   0.8529   0.01033   0.00264  -0.2021  0.6548  0.0799  -1.0673   0.0000   0.0000   0.0000   0.4857
  -0.300   0.8646   0.01031   0.00266  -0.2022  0.6518  0.0841  -1.0776   0.0000   0.0000   0.0000   0.4825
  -0.200   0.8763   0.01031   0.00267  -0.2023  0.6485  0.1004  -1.0878   0.0000   0.0000   0.0000   0.4794
  -0.100   0.8878   0.01030   0.00268  -0.2024  0.6450  0.1090  -1.0980   0.0000   0.0000   0.0000   0.4763
   0.000   0.9000   0.01026   0.00269  -0.2027  0.6412  0.1265  -1.1086   0.0000   0.0000   0.0000   0.4734
   0.100   0.9119   0.01024   0.00270  -0.2029  0.6374  0.1553  -1.1191   0.0000   0.0000   0.0000   0.4705
   0.200   0.9244   0.01018   0.00271  -0.2033  0.6335  0.1947  -1.1299   0.0000   0.0000   0.0000   0.4678
   0.300   0.9374   0.01010   0.00274  -0.2039  0.6298  0.2464  -1.1410   0.0000   0.0000   0.0000   0.4652
   0.400   0.9508   0.00998   0.00278  -0.2045  0.6269  0.3012  -1.1524   0.0000   0.0000   0.0000   0.4627
   0.500   0.9639   0.00989   0.00284  -0.2051  0.6237  0.3477  -1.1636   0.0000   0.0000   0.0000   0.4602
   0.600   0.9759   0.00987   0.00289  -0.2053  0.6203  0.3787  -1.1742   0.0000   0.0000   0.0000   0.4577
   0.700   0.9879   0.00986   0.00295  -0.2056  0.6167  0.4062  -1.1866   0.0000   0.0000   0.0000   0.4552
   0.800   0.9994   0.00986   0.00302  -0.2057  0.6130  0.4328  -1.1989   0.0000   0.0000   0.0000   0.4528
   0.900   1.0110   0.00987   0.00314  -0.2058  0.6089  0.4711  -1.2113   0.0000   0.0000   0.0000   0.4504
   1.000   1.0218   0.00992   0.00321  -0.2057  0.6038  0.4952  -1.2231   0.0000   0.0000   0.0000   0.4481
   1.100   1.0322   0.00999   0.00330  -0.2056  0.5982  0.5156  -1.2347   0.0000   0.0000   0.0000   0.4457
   1.200   1.0432   0.01003   0.00337  -0.2055  0.5938  0.5328  -1.2467   0.0000   0.0000   0.0000   0.4434
   1.300   1.0542   0.01005   0.00347  -0.2055  0.5881  0.5482  -1.2593   0.0000   0.0000   0.0000   0.4412
   1.400   1.0647   0.01012   0.00354  -0.2053  0.5812  0.5592  -1.2733   0.0000   0.0000   0.0000   0.4390
   1.500   1.0748   0.01021   0.00358  -0.2051  0.5736  0.5650  -1.2870   0.0000   0.0000   0.0000   0.4368
   1.600   1.0847   0.01029   0.00364  -0.2048  0.5665  0.5714  -1.3005   0.0000   0.0000   0.0000   0.4346
   1.700   1.0951   0.01035   0.00372  -0.2046  0.5612  0.5783  -1.3145   0.0000   0.0000   0.0000   0.4326
   1.800   1.1055   0.01042   0.00379  -0.2044  0.5558  0.5858  -1.3286   0.0000   0.0000   0.0000   0.4305
   1.900   1.1157   0.01051   0.00386  -0.2042  0.5500  0.5928  -1.3424   0.0000   0.0000   0.0000   0.4285
   2.000   1.1256   0.01062   0.00393  -0.2039  0.5438  0.5989  -1.3561   0.0000   0.0000   0.0000   0.4265
   2.100   1.1351   0.01072   0.00402  -0.2036  0.5373  0.6062  -1.3695   0.0000   0.0000   0.0000   0.4245
   2.200   1.1448   0.01082   0.00411  -0.2033  0.5316  0.6131  -1.3830   0.0000   0.0000   0.0000   0.4225
   2.300   1.1554   0.01088   0.00423  -0.2031  0.5267  0.6201  -1.3973   0.0000   0.0000   0.0000   0.4207
   2.400   1.1658   0.01096   0.00430  -0.2030  0.5197  0.6260  -1.4114   0.0000   0.0000   0.0000   0.4188
   2.500   1.1757   0.01107   0.00437  -0.2027  0.5111  0.6310  -1.4263   0.0000   0.0000   0.0000   0.4170
   2.600   1.1847   0.01118   0.00446  -0.2023  0.5021  0.6367  -1.4423   0.0000   0.0000   0.0000   0.4152
   2.700   1.1943   0.01128   0.00455  -0.2020  0.4952  0.6414  -1.4588   0.0000   0.0000   0.0000   0.4134
   2.800   1.2041   0.01138   0.00463  -0.2017  0.4885  0.6456  -1.4755   0.0000   0.0000   0.0000   0.4116
   2.900   1.2137   0.01150   0.00472  -0.2014  0.4819  0.6494  -1.4920   0.0000   0.0000   0.0000   0.4099
   3.000   1.2232   0.01163   0.00480  -0.2011  0.4754  0.6525  -1.5084   0.0000   0.0000   0.0000   0.4082
   3.100   1.2325   0.01176   0.00488  -0.2007  0.4692  0.6554  -1.5282   0.0000   0.0000   0.0000   0.4066
   3.200   1.2430   0.01184   0.00496  -0.2006  0.4648  0.6583  -1.5495   0.0000   0.0000   0.0000   0.4050
   3.400   1.2640   0.01197   0.00509  -0.2004  0.4528  0.6646  -1.5923   0.0000   0.0000   0.0000   0.4018
   3.500   1.2734   0.01208   0.00519  -0.2001  0.4439  0.6680  -1.6128   0.0000   0.0000   0.0000   0.4003
   3.700   1.2915   0.01236   0.00539  -0.1994  0.4286  0.6746  -1.6529   0.0000   0.0000   0.0000   0.3972
   3.800   1.3010   0.01249   0.00550  -0.1991  0.4225  0.6779  -1.6813   0.0000   0.0000   0.0000   0.3957
   3.900   1.3102   0.01263   0.00560  -0.1987  0.4163  0.6812  -1.7119   0.0000   0.0000   0.0000   0.3942
   4.000   1.3192   0.01279   0.00576  -0.1983  0.4101  0.6844  -1.7423   0.0000   0.0000   0.0000   0.3927
   4.100   1.3281   0.01294   0.00587  -0.1980  0.4039  0.6874  -1.7727   0.0000   0.0000   0.0000   0.3913
   4.200   1.3384   0.01303   0.00596  -0.1978  0.3998  0.6902  -1.8054   0.0000   0.0000   0.0000   0.3899
   4.300   1.3487   0.01310   0.00604  -0.1977  0.3949  0.6935  -1.8382   0.0000   0.0000   0.0000   0.3885
   4.400   1.3584   0.01319   0.00614  -0.1975  0.3876  0.6971  -1.8703   0.0000   0.0000   0.0000   0.3871
   4.500   1.3670   0.01335   0.00627  -0.1970  0.3776  0.7006  -1.9009   0.0000   0.0000   0.0000   0.3858
   4.600   1.3749   0.01355   0.00642  -0.1965  0.3686  0.7040  -1.9304   0.0000   0.0000   0.0000   0.3844
   4.700   1.3837   0.01370   0.00655  -0.1961  0.3620  0.7077  -1.9615   0.0000   0.0000   0.0000   0.3830
   4.800   1.3924   0.01387   0.00669  -0.1957  0.3555  0.7115  -1.9925   0.0000   0.0000   0.0000   0.3817
   4.900   1.4006   0.01406   0.00684  -0.1952  0.3489  0.7152  -2.0230   0.0000   0.0000   0.0000   0.3804
   5.000   1.4088   0.01426   0.00699  -0.1947  0.3423  0.7189  -2.0534   0.0000   0.0000   0.0000   0.3791
   5.100   1.4181   0.01438   0.00711  -0.1944  0.3376  0.7226  -2.0858   0.0000   0.0000   0.0000   0.3778
   5.200   1.4278   0.01445   0.00721  -0.1941  0.3331  0.7268  -2.1190   0.0000   0.0000   0.0000   0.3765
   5.300   1.4369   0.01457   0.00734  -0.1938  0.3253  0.7311  -2.1514   0.0000   0.0000   0.0000   0.3753
   5.400   1.4441   0.01480   0.00753  -0.1931  0.3121  0.7358  -2.1808   0.0000   0.0000   0.0000   0.3740
   5.500   1.4509   0.01506   0.00773  -0.1924  0.3030  0.7409  -2.2096   0.0000   0.0000   0.0000   0.3727
   5.600   1.4584   0.01528   0.00790  -0.1918  0.2955  0.7462  -2.2396   0.0000   0.0000   0.0000   0.3715
   5.700   1.4655   0.01552   0.00810  -0.1912  0.2882  0.7512  -2.2691   0.0000   0.0000   0.0000   0.3702
   5.800   1.4724   0.01574   0.00830  -0.1904  0.2810  0.7565  -2.2982   0.0000   0.0000   0.0000   0.3690
   5.900   1.4809   0.01587   0.00845  -0.1900  0.2764  0.7622  -2.3302   0.0000   0.0000   0.0000   0.3677
   6.000   1.4896   0.01599   0.00859  -0.1896  0.2709  0.7684  -2.3627   0.0000   0.0000   0.0000   0.3666
   6.100   1.4964   0.01622   0.00878  -0.1888  0.2573  0.7744  -2.3920   0.0000   0.0000   0.0000   0.3653
   6.200   1.4991   0.01662   0.00909  -0.1874  0.2438  0.7799  -2.4145   0.0000   0.0000   0.0000   0.3640
   6.300   1.4972   0.01727   0.00960  -0.1852  0.2218  0.7855  -2.4289   0.0000   0.0000   0.0000   0.3626
   6.500   1.5003   0.01825   0.01038  -0.1821  0.1833  0.7991  -2.4699   0.0000   0.0000   0.0000   0.3599
   6.600   1.5024   0.01874   0.01076  -0.1807  0.1701  0.8060  -2.4911   0.0000   0.0000   0.0000   0.3587
   6.700   1.5083   0.01897   0.01100  -0.1799  0.1586  0.8139  -2.5193   0.0000   0.0000   0.0000   0.3575
   6.800   1.5086   0.01954   0.01148  -0.1782  0.1413  0.8226  -2.5376   0.0000   0.0000   0.0000   0.3562
   6.900   1.5103   0.02004   0.01190  -0.1767  0.1323  0.8319  -2.5581   0.0000   0.0000   0.0000   0.3549
   7.000   1.5136   0.02040   0.01225  -0.1755  0.1240  0.8431  -2.5816   0.0000   0.0000   0.0000   0.3537
   7.100   1.5197   0.02059   0.01247  -0.1747  0.1201  0.8568  -2.6103   0.0000   0.0000   0.0000   0.3525
   7.200   1.5240   0.02080   0.01272  -0.1736  0.1128  0.8758  -2.6358   0.0000   0.0000   0.0000   0.3513
   7.400   1.5227   0.02129   0.01323  -0.1695  0.1007  1.0000  -2.6697   0.0000   0.0000   0.0000   0.3484
   7.500   1.5278   0.02167   0.01358  -0.1687  0.0982  1.0000  -2.6965   0.0000   0.0000   0.0000   0.3474
   7.600   1.5327   0.02206   0.01393  -0.1679  0.0955  1.0000  -2.7229   0.0000   0.0000   0.0000   0.3463
   7.700   1.5376   0.02244   0.01429  -0.1671  0.0929  1.0000  -2.7493   0.0000   0.0000   0.0000   0.3453
   7.800   1.5429   0.02281   0.01465  -0.1663  0.0900  1.0000  -2.7763   0.0000   0.0000   0.0000   0.3442
   7.900   1.5486   0.02315   0.01498  -0.1657  0.0874  1.0000  -2.8042   0.0000   0.0000   0.0000   0.3432
   8.000   1.5547   0.02347   0.01530  -0.1650  0.0851  1.0000  -2.8327   0.0000   0.0000   0.0000   0.3422
   8.100   1.5612   0.02375   0.01560  -0.1645  0.0840  1.0000  -2.8624   0.0000   0.0000   0.0000   0.3412
   8.200   1.5679   0.02403   0.01590  -0.1639  0.0832  1.0000  -2.8925   0.0000   0.0000   0.0000   0.3403
   8.300   1.5744   0.02432   0.01620  -0.1634  0.0820  1.0000  -2.9224   0.0000   0.0000   0.0000   0.3393
   8.400   1.5807   0.02463   0.01653  -0.1628  0.0804  1.0000  -2.9519   0.0000   0.0000   0.0000   0.3384
   8.500   1.5866   0.02497   0.01688  -0.1622  0.0781  1.0000  -2.9807   0.0000   0.0000   0.0000   0.3374
   8.600   1.5916   0.02537   0.01729  -0.1615  0.0735  1.0000  -3.0082   0.0000   0.0000   0.0000   0.3365
   8.700   1.5943   0.02595   0.01783  -0.1605  0.0667  1.0000  -3.0321   0.0000   0.0000   0.0000   0.3355
   8.800   1.5978   0.02647   0.01833  -0.1597  0.0653  1.0000  -3.0574   0.0000   0.0000   0.0000   0.3346
   8.900   1.6009   0.02702   0.01886  -0.1588  0.0639  1.0000  -3.0821   0.0000   0.0000   0.0000   0.3337
   9.000   1.6040   0.02758   0.01939  -0.1580  0.0624  1.0000  -3.1066   0.0000   0.0000   0.0000   0.3328
   9.100   1.6070   0.02816   0.01994  -0.1571  0.0607  1.0000  -3.1306   0.0000   0.0000   0.0000   0.3319
   9.200   1.6123   0.02855   0.02041  -0.1565  0.0607  1.0000  -3.1580   0.0000   0.0000   0.0000   0.3310
   9.300   1.6163   0.02906   0.02093  -0.1558  0.0597  1.0000  -3.1832   0.0000   0.0000   0.0000   0.3301
   9.400   1.6200   0.02960   0.02147  -0.1550  0.0582  1.0000  -3.2080   0.0000   0.0000   0.0000   0.3292
   9.500   1.6237   0.03015   0.02202  -0.1543  0.0567  1.0000  -3.2325   0.0000   0.0000   0.0000   0.3284
   9.600   1.6274   0.03071   0.02258  -0.1536  0.0553  1.0000  -3.2570   0.0000   0.0000   0.0000   0.3275
   9.700   1.6314   0.03125   0.02314  -0.1530  0.0540  1.0000  -3.2818   0.0000   0.0000   0.0000   0.3267
   9.800   1.6355   0.03179   0.02369  -0.1523  0.0527  1.0000  -3.3068   0.0000   0.0000   0.0000   0.3259
   9.900   1.6397   0.03233   0.02424  -0.1517  0.0517  1.0000  -3.3404   0.0000   0.0000   0.0000   0.3251
  10.000   1.6448   0.03278   0.02473  -0.1512  0.0513  1.0000  -3.3801   0.0000   0.0000   0.0000   0.3243
  10.100   1.6499   0.03325   0.02523  -0.1507  0.0509  1.0000  -3.4195   0.0000   0.0000   0.0000   0.3235
  10.200   1.6549   0.03373   0.02574  -0.1502  0.0502  1.0000  -3.4585   0.0000   0.0000   0.0000   0.3228
  10.300   1.6596   0.03423   0.02627  -0.1497  0.0494  1.0000  -3.4970   0.0000   0.0000   0.0000   0.3220
  10.400   1.6640   0.03477   0.02684  -0.1492  0.0485  1.0000  -3.5343   0.0000   0.0000   0.0000   0.3213
  10.500   1.6678   0.03536   0.02746  -0.1486  0.0473  1.0000  -3.5700   0.0000   0.0000   0.0000   0.3205
  10.600   1.6712   0.03600   0.02811  -0.1481  0.0460  1.0000  -3.6045   0.0000   0.0000   0.0000   0.3198
  10.700   1.6741   0.03669   0.02881  -0.1475  0.0444  1.0000  -3.6375   0.0000   0.0000   0.0000   0.3191
  10.800   1.6762   0.03745   0.02957  -0.1468  0.0427  1.0000  -3.6683   0.0000   0.0000   0.0000   0.3184
  10.900   1.6772   0.03832   0.03045  -0.1461  0.0409  1.0000  -3.6958   0.0000   0.0000   0.0000   0.3177
  11.000   1.6782   0.03921   0.03133  -0.1454  0.0391  1.0000  -3.7226   0.0000   0.0000   0.0000   0.3170
  11.100   1.6813   0.03989   0.03203  -0.1449  0.0378  1.0000  -3.7549   0.0000   0.0000   0.0000   0.3163
  11.200   1.6855   0.04048   0.03263  -0.1444  0.0367  1.0000  -3.7897   0.0000   0.0000   0.0000   0.3156
  11.300   1.6882   0.04122   0.03336  -0.1439  0.0332  1.0000  -3.8209   0.0000   0.0000   0.0000   0.3150
  11.400   1.6836   0.04266   0.03473  -0.1429  0.0251  1.0000  -3.8346   0.0000   0.0000   0.0000   0.3144
  11.500   1.6780   0.04421   0.03620  -0.1419  0.0198  1.0000  -3.8449   0.0000   0.0000   0.0000   0.3139
  11.600   1.6774   0.04529   0.03727  -0.1412  0.0163  1.0000  -3.8671   0.0000   0.0000   0.0000   0.3133
  11.700   1.6741   0.04668   0.03868  -0.1404  0.0095  1.0000  -3.8777   0.0000   0.0000   0.0000   0.3128
  11.800   1.6711   0.04807   0.04007  -0.1397  0.0084  1.0000  -3.8763   0.0000   0.0000   0.0000   0.3123
  11.900   1.6699   0.04931   0.04131  -0.1391  0.0072  1.0000  -3.8890   0.0000   0.0000   0.0000   0.3117
  12.000   1.6736   0.05001   0.04205  -0.1387  0.0058  1.0000  -3.9296   0.0000   0.0000   0.0000   0.3111
  12.100   1.6758   0.05089   0.04297  -0.1383  0.0051  1.0000  -3.9574   0.0000   0.0000   0.0000   0.3106
  12.300   1.6796   0.05276   0.04494  -0.1375  0.0045  1.0000  -4.0058   0.0000   0.0000   0.0000   0.3095
  12.400   1.6815   0.05371   0.04593  -0.1372  0.0044  1.0000  -4.0320   0.0000   0.0000   0.0000   0.3089
  12.500   1.6834   0.05466   0.04691  -0.1368  0.0043  1.0000  -4.0842   0.0000   0.0000   0.0000   0.3084
  12.600   1.6854   0.05561   0.04789  -0.1364  0.0042  1.0000  -4.1380   0.0000   0.0000   0.0000   0.3079
  12.700   1.6871   0.05660   0.04893  -0.1361  0.0042  1.0000  -4.1907   0.0000   0.0000   0.0000   0.3074
  12.800   1.6882   0.05768   0.05004  -0.1358  0.0041  1.0000  -4.2410   0.0000   0.0000   0.0000   0.3069
  12.900   1.6894   0.05875   0.05115  -0.1355  0.0041  1.0000  -4.2922   0.0000   0.0000   0.0000   0.3064
  13.000   1.6909   0.05979   0.05223  -0.1352  0.0040  1.0000  -4.3447   0.0000   0.0000   0.0000   0.3060
  13.100   1.6924   0.06082   0.05330  -0.1349  0.0040  1.0000  -4.3978   0.0000   0.0000   0.0000   0.3055
  13.200   1.6940   0.06186   0.05437  -0.1346  0.0040  1.0000  -4.4512   0.0000   0.0000   0.0000   0.3050
  13.300   1.6955   0.06291   0.05547  -0.1343  0.0039  1.0000  -4.5043   0.0000   0.0000   0.0000   0.3046
  13.400   1.6962   0.06407   0.05667  -0.1341  0.0039  1.0000  -4.5538   0.0000   0.0000   0.0000   0.3042
  13.500   1.6967   0.06528   0.05793  -0.1339  0.0039  1.0000  -4.6023   0.0000   0.0000   0.0000   0.3038
  13.600   1.6974   0.06646   0.05915  -0.1337  0.0039  1.0000  -4.6522   0.0000   0.0000   0.0000   0.3034
  13.700   1.6984   0.06762   0.06034  -0.1335  0.0038  1.0000  -4.7030   0.0000   0.0000   0.0000   0.3030
  13.800   1.6993   0.06876   0.06153  -0.1333  0.0038  1.0000  -4.7542   0.0000   0.0000   0.0000   0.3026
  13.900   1.7002   0.06993   0.06274  -0.1331  0.0038  1.0000  -4.8053   0.0000   0.0000   0.0000   0.3022
  14.000   1.7003   0.07123   0.06409  -0.1330  0.0038  1.0000  -4.8518   0.0000   0.0000   0.0000   0.3019
  14.100   1.7002   0.07255   0.06546  -0.1329  0.0038  1.0000  -4.8977   0.0000   0.0000   0.0000   0.3016
  14.200   1.7005   0.07383   0.06677  -0.1327  0.0038  1.0000  -4.9458   0.0000   0.0000   0.0000   0.3013
  14.300   1.7010   0.07507   0.06806  -0.1326  0.0038  1.0000  -4.9949   0.0000   0.0000   0.0000   0.3010
  14.400   1.7015   0.07631   0.06934  -0.1325  0.0038  1.0000  -5.0442   0.0000   0.0000   0.0000   0.3006
  14.500   1.7018   0.07756   0.07063  -0.1324  0.0038  1.0000  -5.0925   0.0000   0.0000   0.0000   0.3003
  14.600   1.7015   0.07889   0.07201  -0.1323  0.0038  1.0000  -5.1378   0.0000   0.0000   0.0000   0.3001
  14.700   1.7005   0.08036   0.07353  -0.1323  0.0038  1.0000  -5.1789   0.0000   0.0000   0.0000   0.2998
  14.800   1.6997   0.08178   0.07501  -0.1323  0.0038  1.0000  -5.2214   0.0000   0.0000   0.0000   0.2996
  14.900   1.6993   0.08317   0.07644  -0.1323  0.0038  1.0000  -5.2656   0.0000   0.0000   0.0000   0.2994
  15.000   1.6990   0.08454   0.07786  -0.1322  0.0038  1.0000  -5.3108   0.0000   0.0000   0.0000   0.2992
  15.100   1.6988   0.08592   0.07929  -0.1323  0.0038  1.0000  -5.3561   0.0000   0.0000   0.0000   0.2989
  15.200   1.6976   0.08747   0.08089  -0.1323  0.0038  1.0000  -5.3963   0.0000   0.0000   0.0000   0.2988
  15.300   1.6963   0.08907   0.08254  -0.1325  0.0038  1.0000  -5.4349   0.0000   0.0000   0.0000   0.2987
  15.400   1.6954   0.09058   0.08410  -0.1325  0.0038  1.0000  -5.4762   0.0000   0.0000   0.0000   0.2985
  15.500   1.6949   0.09205   0.08561  -0.1326  0.0038  1.0000  -5.5197   0.0000   0.0000   0.0000   0.2984
  15.600   1.6944   0.09351   0.08712  -0.1328  0.0038  1.0000  -5.5634   0.0000   0.0000   0.0000   0.2982
  15.700   1.6939   0.09497   0.08864  -0.1329  0.0038  1.0000  -5.6068   0.0000   0.0000   0.0000   0.2980
  15.800   1.6930   0.09653   0.09024  -0.1330  0.0038  1.0000  -5.6475   0.0000   0.0000   0.0000   0.2979
  15.900   1.6911   0.09826   0.09203  -0.1333  0.0038  1.0000  -5.6825   0.0000   0.0000   0.0000   0.2979
  16.000   1.6898   0.09990   0.09375  -0.1336  0.0038  1.0000  -5.7232   0.0000   0.0000   0.0000   0.2979
  16.100   1.6888   0.10149   0.09540  -0.1338  0.0038  1.0000  -5.7631   0.0000   0.0000   0.0000   0.2978
  16.200   1.6878   0.10306   0.09702  -0.1341  0.0038  1.0000  -5.8033   0.0000   0.0000   0.0000   0.2978
  16.300   1.6868   0.10464   0.09865  -0.1343  0.0038  1.0000  -5.8430   0.0000   0.0000   0.0000   0.2977
  16.400   1.6850   0.10639   0.10046  -0.1347  0.0038  1.0000  -5.8771   0.0000   0.0000   0.0000   0.2978
  16.500   1.6828   0.10821   0.10233  -0.1351  0.0038  1.0000  -5.9093   0.0000   0.0000   0.0000   0.2979
  16.600   1.6813   0.10991   0.10409  -0.1355  0.0038  1.0000  -5.9447   0.0000   0.0000   0.0000   0.2979
  16.700   1.6800   0.11156   0.10579  -0.1358  0.0038  1.0000  -5.9818   0.0000   0.0000   0.0000   0.2979
  16.800   1.6788   0.11319   0.10747  -0.1362  0.0038  1.0000  -6.0190   0.0000   0.0000   0.0000   0.2980
  16.900   1.6775   0.11483   0.10917  -0.1366  0.0038  1.0000  -6.0558   0.0000   0.0000   0.0000   0.2980
  17.000   1.6760   0.11655   0.11094  -0.1371  0.0039  1.0000  -6.0902   0.0000   0.0000   0.0000   0.2981
  17.100   1.6733   0.11850   0.11294  -0.1377  0.0039  1.0000  -6.1167   0.0000   0.0000   0.0000   0.2983
  17.200   1.6710   0.12035   0.11486  -0.1383  0.0039  1.0000  -6.1457   0.0000   0.0000   0.0000   0.2985
  17.300   1.6691   0.12213   0.11669  -0.1388  0.0039  1.0000  -6.1769   0.0000   0.0000   0.0000   0.2987
  17.400   1.6673   0.12388   0.11849  -0.1394  0.0039  1.0000  -6.2088   0.0000   0.0000   0.0000   0.2989
  17.500   1.6656   0.12565   0.12032  -0.1399  0.0039  1.0000  -6.2401   0.0000   0.0000   0.0000   0.2990
  17.600   1.6625   0.12769   0.12242  -0.1407  0.0039  1.0000  -6.2620   0.0000   0.0000   0.0000   0.2994
  17.700   1.6598   0.12964   0.12443  -0.1414  0.0039  1.0000  -6.2862   0.0000   0.0000   0.0000   0.2997
  17.800   1.6577   0.13148   0.12632  -0.1421  0.0039  1.0000  -6.3138   0.0000   0.0000   0.0000   0.3000
  17.900   1.6558   0.13328   0.12817  -0.1428  0.0039  1.0000  -6.3429   0.0000   0.0000   0.0000   0.3002
  18.000   1.6539   0.13508   0.13003  -0.1435  0.0039  1.0000  -6.3713   0.0000   0.0000   0.0000   0.3005
  18.100   1.6518   0.13693   0.13194  -0.1442  0.0040  1.0000  -6.3976   0.0000   0.0000   0.0000   0.3008
  18.200   1.6483   0.13907   0.13414  -0.1452  0.0040  1.0000  -6.4134   0.0000   0.0000   0.0000   0.3013
  18.300   1.6450   0.14118   0.13631  -0.1461  0.0040  1.0000  -6.4299   0.0000   0.0000   0.0000   0.3018
  18.400   1.6423   0.14316   0.13834  -0.1470  0.0040  1.0000  -6.4506   0.0000   0.0000   0.0000   0.3022
  18.500   1.6399   0.14510   0.14035  -0.1479  0.0040  1.0000  -6.4722   0.0000   0.0000   0.0000   0.3026
  18.600   1.6373   0.14703   0.14233  -0.1489  0.0040  1.0000  -6.4921   0.0000   0.0000   0.0000   0.3031
  18.700   1.6334   0.14918   0.14455  -0.1500  0.0040  1.0000  -6.5010   0.0000   0.0000   0.0000   0.3038
  18.800   1.6303   0.15116   0.14658  -0.1511  0.0040  1.0000  -6.5151   0.0000   0.0000   0.0000   0.3043
  18.900   1.6279   0.15302   0.14850  -0.1521  0.0040  1.0000  -6.5338   0.0000   0.0000   0.0000   0.3049
  19.000   1.6256   0.15484   0.15038  -0.1531  0.0041  1.0000  -6.5534   0.0000   0.0000   0.0000   0.3053
  19.100   1.6233   0.15670   0.15229  -0.1542  0.0041  1.0000  -6.5718   0.0000   0.0000   0.0000   0.3058
  19.200   1.6206   0.15866   0.15431  -0.1553  0.0041  1.0000  -6.5867   0.0000   0.0000   0.0000   0.3064
  19.300   1.6165   0.16097   0.15667  -0.1566  0.0041  1.0000  -6.5894   0.0000   0.0000   0.0000   0.3072
  19.400   1.6132   0.16316   0.15892  -0.1579  0.0041  1.0000  -6.5974   0.0000   0.0000   0.0000   0.3080
  19.500   1.6103   0.16527   0.16109  -0.1591  0.0041  1.0000  -6.6083   0.0000   0.0000   0.0000   0.3086
  19.600   1.6074   0.16739   0.16326  -0.1603  0.0041  1.0000  -6.6189   0.0000   0.0000   0.0000   0.3093
  19.700   1.6036   0.16974   0.16567  -0.1616  0.0041  1.0000  -6.6214   0.0000   0.0000   0.0000   0.3101
  19.800   1.5997   0.17219   0.16818  -0.1630  0.0041  1.0000  -6.6213   0.0000   0.0000   0.0000   0.3110
  19.900   1.5966   0.17446   0.17051  -0.1643  0.0042  1.0000  -6.6277   0.0000   0.0000   0.0000   0.3118
  20.000   1.5938   0.17667   0.17277  -0.1656  0.0042  1.0000  -6.6359   0.0000   0.0000   0.0000   0.3125
