XFLR5 v6.02 Beta

 Calculated polar for: WORTMANN FX 63-137

 1 1 Reynolds number fixed          Mach number fixed         

 xtrf =   1.000 (top)        1.000 (bottom)
 Mach =   0.000     Re =     8.750 e 6     Ncrit =   9.000

  alpha     CL        CD       CDp       CM    Top Xtr Bot Xtr   Cpmin    Chinge    XCp    
 ------- -------- --------- --------- -------- ------- ------- -------- --------- ---------
 -19.500  -0.3159   0.18193   0.17935  -0.0719  0.5422  0.0021  -5.0978   0.0000  -0.0285
 -19.000  -0.2974   0.17690   0.17429  -0.0751  0.5321  0.0022  -4.8509   0.0000  -0.0546
 -18.500  -0.2791   0.17176   0.16915  -0.0783  0.5301  0.0024  -4.6182   0.0000  -0.0840
 -17.500  -0.9109   0.03909   0.03615  -0.1564  0.7766  0.0037  -18.5563   0.0000   0.0496
 -17.000  -0.9189   0.03169   0.02856  -0.1632  0.7514  0.0037  -18.4113   0.0000   0.0454
 -16.500  -0.9129   0.02637   0.02307  -0.1679  0.7353  0.0037  -18.0199   0.0000   0.0405
 -16.000  -0.9005   0.02239   0.01898  -0.1707  0.7206  0.0038  -17.5059   0.0000   0.0362
 -15.000  -0.8146   0.01659   0.01283  -0.1827  0.6596  0.0039  -15.8177   0.0000   0.0027
 -14.500  -0.7605   0.01507   0.01124  -0.1861  0.6562  0.0039  -14.8416   0.0000  -0.0176
 -14.000  -0.7078   0.01401   0.01003  -0.1879  0.6260  0.0040  -13.8938   0.0000  -0.0383
 -13.500  -0.6574   0.01331   0.00900  -0.1887  0.5450  0.0041  -12.9955   0.0000  -0.0598
 -13.000  -0.6032   0.01262   0.00812  -0.1898  0.4916  0.0041  -12.0813   0.0000  -0.0877
 -12.500  -0.5463   0.01192   0.00732  -0.1911  0.4679  0.0042  -11.1723   0.0000  -0.1235
 -12.000  -0.4877   0.01124   0.00658  -0.1926  0.4639  0.0042  -10.2782   0.0000  -0.1694
 -11.500  -0.4307   0.01080   0.00600  -0.1936  0.4287  0.0043  -9.4162   0.0000  -0.2252
  -5.000   0.3331   0.00861   0.00285  -0.2030  0.1703  0.0062  -2.1238   0.0000   0.8711
  -4.500   0.3953   0.00832   0.00247  -0.2043  0.1693  0.0054  -1.8947   0.0000   0.7757
  -4.000   0.4570   0.00811   0.00215  -0.2055  0.1676  0.0048  -1.6915   0.0000   0.7063
  -3.500   0.5175   0.00803   0.00192  -0.2063  0.1451  0.0066  -1.6659   0.0000   0.6536
  -3.000   0.5765   0.00804   0.00192  -0.2070  0.1383  0.0139  -1.3978   0.0000   0.6126
  -2.500   0.6347   0.00811   0.00195  -0.2074  0.1237  0.0148  -1.1273   0.0000   0.5792
  -2.000   0.6930   0.00816   0.00198  -0.2078  0.1222  0.0148  -0.9438   0.0000   0.5513
  -1.500   0.7503   0.00830   0.00208  -0.2081  0.1099  0.0154  -0.9921   0.0000   0.5279
  -1.000   0.8072   0.00846   0.00217  -0.2083  0.0987  0.0158  -1.0433   0.0000   0.5077
  -0.500   0.8645   0.00859   0.00225  -0.2085  0.0932  0.0161  -1.0951   0.0000   0.4901
   0.000   0.9217   0.00870   0.00236  -0.2088  0.0884  0.0163  -1.1473   0.0000   0.4747
   0.500   0.9787   0.00883   0.00248  -0.2090  0.0841  0.0168  -1.1997   0.0000   0.4610
   1.000   1.0356   0.00895   0.00260  -0.2093  0.0842  0.0173  -1.2619   0.0000   0.4488
   1.500   1.0920   0.00910   0.00275  -0.2094  0.0838  0.0213  -1.3352   0.0000   0.4378
   2.000   1.1484   0.00925   0.00292  -0.2096  0.0833  0.0358  -1.4107   0.0000   0.4278
   2.500   1.1995   0.00982   0.00334  -0.2087  0.0455  0.0398  -1.4933   0.0000   0.4186
   3.000   1.2542   0.01007   0.00359  -0.2086  0.0380  0.0650  -1.5981   0.0000   0.4102
   3.500   1.3085   0.01032   0.00383  -0.2084  0.0373  0.0683  -1.7141   0.0000   0.4024
   4.000   1.3624   0.01058   0.00409  -0.2081  0.0365  0.0776  -1.8445   0.0000   0.3952
   4.500   1.4126   0.01113   0.00456  -0.2072  0.0192  0.1027  -2.0045   0.0000   0.3883
   5.000   1.4621   0.01171   0.00514  -0.2061  0.0043  0.1444  -2.1845   0.0000   0.3819
   5.500   1.5140   0.01208   0.00555  -0.2056  0.0033  0.1950  -2.3653   0.0000   0.3759
   6.000   1.5693   0.01233   0.00605  -0.2060  0.0018  0.3690  -2.5560   0.0000   0.3706
   6.500   1.6193   0.01276   0.00651  -0.2052  0.0014  0.4065  -2.7431   0.0000   0.3652
   7.500   1.7162   0.01371   0.00758  -0.2030  0.0013  0.5000  -3.1248   0.0000   0.3551
   8.000   1.7605   0.01429   0.00815  -0.2011  0.0013  0.5052  -3.3143   0.0000   0.3501
   8.500   1.8019   0.01490   0.00879  -0.1987  0.0012  0.5290  -3.5016   0.0000   0.3453
   9.000   1.8341   0.01559   0.00950  -0.1944  0.0012  0.5375  -3.6826   0.0000   0.3401
   9.500   1.8678   0.01637   0.01034  -0.1907  0.0012  0.5737  -3.9208   0.0000   0.3353
  10.000   1.9013   0.01726   0.01132  -0.1871  0.0012  0.6241  -4.2072   0.0000   0.3307
  10.500   1.9320   0.01831   0.01244  -0.1833  0.0011  0.6585  -4.6859   0.0000   0.3261
  11.000   1.9607   0.01954   0.01374  -0.1793  0.0011  0.6908  -5.1734   0.0000   0.3218
  11.500   1.9873   0.02099   0.01526  -0.1753  0.0011  0.7168  -5.6658   0.0000   0.3175
  12.000   2.0123   0.02268   0.01704  -0.1715  0.0011  0.7559  -6.1613   0.0000   0.3135
  12.500   2.0349   0.02467   0.01916  -0.1677  0.0011  0.8143  -6.6498   0.0000   0.3096
  13.000   2.0612   0.02658   0.02133  -0.1650  0.0010  1.0000  -7.2717   0.0000   0.3061
  13.500   2.0802   0.02910   0.02390  -0.1614  0.0010  1.0000  -7.7999   0.0000   0.3025
  14.000   2.0969   0.03196   0.02682  -0.1580  0.0009  1.0000  -8.3260   0.0000   0.2991
  14.500   2.1116   0.03517   0.03009  -0.1548  0.0009  1.0000  -8.8515   0.0000   0.2959
  15.000   2.1237   0.03878   0.03377  -0.1518  0.0009  1.0000  -9.3711   0.0000   0.2928
  15.500   2.1317   0.04285   0.03792  -0.1488  0.0009  1.0000  -9.8675   0.0000   0.2899
  16.000   2.1381   0.04744   0.04260  -0.1463  0.0008  1.0000  -10.3652   0.0000   0.2873
  16.500   2.1430   0.05247   0.04772  -0.1442  0.0008  1.0000  -10.8608   0.0000   0.2848
  17.000   2.1453   0.05803   0.05336  -0.1424  0.0008  1.0000  -11.3444   0.0000   0.2826
  17.500   2.1519   0.06312   0.05854  -0.1410  0.0008  1.0000  -11.8742   0.0000   0.2803
  18.000   2.1487   0.06968   0.06520  -0.1400  0.0008  1.0000  -12.3234   0.0000   0.2786
  18.500   2.1428   0.07674   0.07237  -0.1394  0.0007  1.0000  -12.7515   0.0000   0.2770
  19.000   2.1333   0.08412   0.07987  -0.1392  0.0007  1.0000  -13.1554   0.0000   0.2757
  19.500   2.1215   0.09224   0.08811  -0.1395  0.0007  1.0000  -13.5309   0.0000   0.2748
  20.000   2.1193   0.09891   0.09488  -0.1399  0.0007  1.0000  -14.0046   0.0000   0.2735


