XFLR5 v6.02 Beta

 Calculated polar for: WORTMANN FX 63-137

 1 1 Reynolds number fixed          Mach number fixed         

 xtrf =   1.000 (top)        1.000 (bottom)
 Mach =   0.000     Re =    28.500 e 6     Ncrit =   9.000

  alpha     CL        CD       CDp       CM    Top Xtr Bot Xtr   Cpmin    Chinge    XCp    
 ------- -------- --------- --------- -------- ------- ------- -------- --------- ---------
 -21.500  -1.0797   0.06727   0.06435  -0.1390  0.5956  0.0023  -24.2555   0.0000   0.0840
 -21.000  -1.1561   0.05055   0.04745  -0.1522  0.6026  0.0023  -25.4260   0.0000   0.0838
 -20.500  -1.1852   0.04076   0.03752  -0.1602  0.5962  0.0023  -25.6232   0.0000   0.0822
 -20.000  -1.1993   0.03348   0.03010  -0.1662  0.5734  0.0024  -25.5047   0.0000   0.0806
 -19.500  -1.1967   0.02856   0.02504  -0.1698  0.5455  0.0024  -25.0739   0.0000   0.0788
 -19.000  -1.1892   0.02403   0.02043  -0.1732  0.5367  0.0025  -24.5593   0.0000   0.0764
 -18.500  -1.1770   0.02066   0.01701  -0.1745  0.5322  0.0025  -23.9416   0.0000   0.0751
 -17.500  -1.0941   0.01532   0.01144  -0.1851  0.4803  0.0027  -22.0129   0.0000   0.0559
 -17.000  -1.0439   0.01416   0.01010  -0.1874  0.4102  0.0029  -20.9228   0.0000   0.0462
 -16.500  -0.9900   0.01318   0.00907  -0.1891  0.4018  0.0030  -19.8035   0.0000   0.0351
 -16.000  -0.9347   0.01235   0.00820  -0.1906  0.4007  0.0032  -18.6905   0.0000   0.0226
 -15.000  -0.8225   0.01108   0.00680  -0.1929  0.3672  0.0035  -16.5225   0.0000  -0.0075
 -14.500  -0.7654   0.01058   0.00623  -0.1939  0.3526  0.0036  -15.4701   0.0000  -0.0263
 -14.000  -0.7092   0.01021   0.00573  -0.1946  0.2880  0.0036  -14.4565   0.0000  -0.0473
 -13.500  -0.6508   0.00978   0.00525  -0.1956  0.2773  0.0037  -13.5047   0.0000  -0.0738
 -13.000  -0.5918   0.00939   0.00483  -0.1966  0.2769  0.0037  -12.6035   0.0000  -0.1058
 -12.500  -0.5337   0.00910   0.00444  -0.1974  0.2445  0.0038  -11.7366   0.0000  -0.1441
 -11.500  -0.4153   0.00851   0.00376  -0.1992  0.2210  0.0039  -10.0606   0.0000  -0.2564
 -11.000  -0.3567   0.00831   0.00348  -0.1999  0.1873  0.0040  -9.2724   0.0000  -0.3395
 -10.500  -0.2971   0.00808   0.00321  -0.2008  0.1798  0.0040  -8.5054   0.0000  -0.4582
 -10.000  -0.2373   0.00786   0.00296  -0.2017  0.1716  0.0040  -7.7668   0.0000  -0.6375
  -9.500  -0.1774   0.00766   0.00274  -0.2025  0.1698  0.0041  -7.0589   0.0000  -0.9385
  -9.000  -0.1174   0.00748   0.00253  -0.2034  0.1685  0.0041  -6.3841   0.0000  -1.5473
  -8.500  -0.0582   0.00738   0.00237  -0.2040  0.1438  0.0041  -5.7374   0.0000  -3.3789
  -8.000   0.0015   0.00726   0.00221  -0.2048  0.1384  0.0042  -5.1173   0.0000  141.8439
  -7.500   0.0613   0.00715   0.00208  -0.2055  0.1333  0.0042  -4.5260   0.0000   3.7047
  -7.000   0.1211   0.00706   0.00196  -0.2063  0.1297  0.0043  -4.0498   0.0000   2.0008
  -6.500   0.1808   0.00698   0.00186  -0.2070  0.1252  0.0043  -3.6608   0.0000   1.4238
  -6.000   0.2405   0.00691   0.00178  -0.2077  0.1239  0.0043  -3.2868   0.0000   1.1336
  -5.500   0.3001   0.00686   0.00171  -0.2084  0.1235  0.0044  -2.9273   0.0000   0.9589
  -5.000   0.3596   0.00682   0.00166  -0.2090  0.1231  0.0044  -2.5812   0.0000   0.8422
  -4.500   0.4189   0.00680   0.00162  -0.2096  0.1224  0.0045  -2.2538   0.0000   0.7588
  -4.000   0.4774   0.00685   0.00163  -0.2101  0.1034  0.0045  -1.9432   0.0000   0.6964
  -3.500   0.5358   0.00691   0.00164  -0.2105  0.0928  0.0046  -1.6472   0.0000   0.6477
  -3.000   0.5946   0.00694   0.00165  -0.2110  0.0897  0.0058  -1.3650   0.0000   0.6084
  -2.500   0.6533   0.00697   0.00167  -0.2115  0.0865  0.0062  -1.0973   0.0000   0.5761
  -2.000   0.7118   0.00701   0.00170  -0.2120  0.0842  0.0069  -0.9557   0.0000   0.5492
  -1.000   0.8283   0.00714   0.00181  -0.2128  0.0825  0.0097  -1.0580   0.0000   0.5066
  -0.500   0.8851   0.00732   0.00193  -0.2130  0.0640  0.0151  -1.1096   0.0000   0.4895
   0.000   0.9422   0.00747   0.00204  -0.2132  0.0532  0.0154  -1.1618   0.0000   0.4744
   0.500   0.9993   0.00759   0.00215  -0.2134  0.0504  0.0159  -1.2157   0.0000   0.4610
   1.000   1.0566   0.00770   0.00225  -0.2137  0.0514  0.0171  -1.2796   0.0000   0.4490
   1.500   1.1134   0.00783   0.00237  -0.2139  0.0513  0.0173  -1.3549   0.0000   0.4381
   2.000   1.1696   0.00800   0.00253  -0.2140  0.0488  0.0212  -1.4306   0.0000   0.4283
   2.500   1.2212   0.00857   0.00297  -0.2131  0.0034  0.0375  -1.5157   0.0000   0.4191
   3.000   1.2763   0.00880   0.00318  -0.2131  0.0025  0.0383  -1.6276   0.0000   0.4108
   3.500   1.3311   0.00904   0.00340  -0.2129  0.0020  0.0457  -1.7445   0.0000   0.4031
   4.000   1.3855   0.00929   0.00364  -0.2127  0.0024  0.0493  -1.8832   0.0000   0.3959
   4.500   1.4396   0.00956   0.00391  -0.2125  0.0019  0.0663  -2.0601   0.0000   0.3893
   5.000   1.4929   0.00985   0.00418  -0.2121  0.0014  0.0722  -2.2408   0.0000   0.3830
   5.500   1.5461   0.01015   0.00449  -0.2118  0.0013  0.1023  -2.4259   0.0000   0.3771
   6.000   1.5989   0.01046   0.00483  -0.2114  0.0012  0.1480  -2.6152   0.0000   0.3715
   6.500   1.6506   0.01080   0.00518  -0.2108  0.0012  0.1700  -2.8074   0.0000   0.3662
   7.000   1.7017   0.01117   0.00556  -0.2102  0.0012  0.1964  -3.0031   0.0000   0.3611
   7.500   1.7517   0.01156   0.00596  -0.2093  0.0012  0.2184  -3.2012   0.0000   0.3562
   8.000   1.8001   0.01200   0.00638  -0.2081  0.0012  0.2136  -3.4007   0.0000   0.3514
   8.500   1.8501   0.01240   0.00688  -0.2074  0.0012  0.3187  -3.6070   0.0000   0.3470
   9.500   1.9417   0.01341   0.00793  -0.2043  0.0011  0.3706  -4.1478   0.0000   0.3382
  10.000   1.9866   0.01395   0.00857  -0.2027  0.0011  0.4671  -4.7093   0.0000   0.3341
  10.500   2.0158   0.01459   0.00924  -0.1978  0.0011  0.4869  -5.2106   0.0000   0.3293
  11.000   2.0464   0.01535   0.01003  -0.1935  0.0011  0.4974  -5.7416   0.0000   0.3247
  11.500   2.0770   0.01624   0.01093  -0.1894  0.0011  0.5152  -6.2964   0.0000   0.3203
  12.000   2.1058   0.01725   0.01199  -0.1852  0.0010  0.5339  -6.8629   0.0000   0.3160
  12.500   2.1336   0.01843   0.01320  -0.1810  0.0010  0.5576  -7.4430   0.0000   0.3119
  13.000   2.1594   0.01980   0.01462  -0.1769  0.0010  0.5825  -8.0288   0.0000   0.3079
  13.500   2.1839   0.02141   0.01631  -0.1730  0.0009  0.6286  -8.6238   0.0000   0.3041
  14.000   2.2045   0.02328   0.01825  -0.1688  0.0009  0.6637  -9.2089   0.0000   0.3003
  14.500   2.2248   0.02544   0.02047  -0.1650  0.0009  0.6966  -9.8077   0.0000   0.2968
  15.000   2.2442   0.02788   0.02300  -0.1616  0.0009  0.7412  -10.4162   0.0000   0.2934
  15.500   2.2613   0.03068   0.02588  -0.1583  0.0008  0.7820  -11.0225   0.0000   0.2902
  16.000   2.2792   0.03384   0.02918  -0.1558  0.0008  0.8727  -11.6513   0.0000   0.2873
  16.500   2.2950   0.03741   0.03294  -0.1536  0.0008  1.0000  -12.2773   0.0000   0.2845
  17.000   2.3019   0.04143   0.03702  -0.1506  0.0007  1.0000  -12.8410   0.0000   0.2817
  17.500   2.3055   0.04617   0.04183  -0.1478  0.0006  1.0000  -13.3879   0.0000   0.2790
  19.000   2.2317   0.07254   0.06867  -0.1406  0.0016  1.0000  -14.1681   0.0000   0.2735
  19.500   2.2270   0.07933   0.07555  -0.1402  0.0018  1.0000  -14.6705   0.0000   0.2720


