XFLR5 v6.02 Beta

 Calculated polar for: WORTMANN FX 63-137

 1 1 Reynolds number fixed          Mach number fixed         

 xtrf =   1.000 (top)        1.000 (bottom)
 Mach =   0.000     Re =    65.750 e 6     Ncrit =   9.000

  alpha     CL        CD       CDp       CM    Top Xtr Bot Xtr   Cpmin    Chinge    XCp    
 ------- -------- --------- --------- -------- ------- ------- -------- --------- ---------
 -22.500  -1.2350   0.05808   0.05493  -0.1493  0.4089  0.0014  -28.0271   0.0000   0.0912
 -22.000  -1.2792   0.04656   0.04328  -0.1584  0.4083  0.0014  -28.5182   0.0000   0.0905
 -21.500  -1.3029   0.03789   0.03451  -0.1653  0.4100  0.0014  -28.5751   0.0000   0.0893
 -21.000  -1.3055   0.03235   0.02890  -0.1694  0.4068  0.0014  -28.2137   0.0000   0.0880
 -20.500  -1.3023   0.02757   0.02407  -0.1728  0.4035  0.0014  -27.7385   0.0000   0.0865
 -20.000  -1.2930   0.02344   0.01988  -0.1757  0.4021  0.0014  -27.1540   0.0000   0.0847
 -19.500  -1.2786   0.02008   0.01647  -0.1774  0.4016  0.0014  -26.4743   0.0000   0.0832
 -19.000  -1.2504   0.01749   0.01383  -0.1800  0.4012  0.0015  -25.6086   0.0000   0.0790
 -18.500  -1.2013   0.01522   0.01152  -0.1856  0.4010  0.0015  -24.4929   0.0000   0.0693
 -17.500  -1.0968   0.01307   0.00916  -0.1903  0.3059  0.0017  -22.1700   0.0000   0.0516
 -17.000  -1.0426   0.01232   0.00837  -0.1915  0.2985  0.0018  -21.0093   0.0000   0.0419
 -16.500  -0.9872   0.01165   0.00767  -0.1927  0.2914  0.0018  -19.8601   0.0000   0.0309
 -16.000  -0.9308   0.01105   0.00704  -0.1938  0.2845  0.0019  -18.7278   0.0000   0.0183
 -15.500  -0.8738   0.01049   0.00645  -0.1948  0.2799  0.0021  -17.6160   0.0000   0.0037
 -14.500  -0.7593   0.00959   0.00543  -0.1966  0.2224  0.0023  -15.4778   0.0000  -0.0321
 -14.000  -0.7008   0.00916   0.00497  -0.1976  0.2215  0.0024  -14.4414   0.0000  -0.0552
 -13.000  -0.5835   0.00845   0.00417  -0.1994  0.1909  0.0027  -12.6237   0.0000  -0.1157
 -11.000  -0.3455   0.00729   0.00288  -0.2031  0.1445  0.0038  -9.2826   0.0000  -0.3678
 -10.500  -0.2858   0.00709   0.00265  -0.2039  0.1396  0.0039  -8.5122   0.0000  -0.4971
 -10.000  -0.2260   0.00692   0.00245  -0.2047  0.1345  0.0040  -7.7711   0.0000  -0.6951
  -9.500  -0.1662   0.00677   0.00228  -0.2055  0.1294  0.0041  -7.0596   0.0000  -1.0362
  -9.000  -0.1064   0.00664   0.00213  -0.2062  0.1239  0.0041  -6.3779   0.0000  -1.7615
  -8.500  -0.0465   0.00652   0.00199  -0.2070  0.1236  0.0041  -5.7239   0.0000  -4.3560
  -8.000   0.0134   0.00641   0.00187  -0.2077  0.1233  0.0042  -5.0995   0.0000  16.3015
  -7.500   0.0732   0.00632   0.00176  -0.2084  0.1229  0.0042  -4.5049   0.0000   3.1830
  -7.000   0.1330   0.00624   0.00167  -0.2091  0.1228  0.0043  -4.0423   0.0000   1.8659
  -6.500   0.1921   0.00622   0.00160  -0.2097  0.1026  0.0043  -3.6524   0.0000   1.3689
  -6.000   0.2515   0.00619   0.00154  -0.2103  0.0996  0.0043  -3.2763   0.0000   1.1052
  -5.500   0.3110   0.00616   0.00150  -0.2109  0.0969  0.0044  -2.9154   0.0000   0.9424
  -5.000   0.3703   0.00614   0.00146  -0.2115  0.0944  0.0044  -2.5698   0.0000   0.8319
  -4.500   0.4296   0.00613   0.00144  -0.2121  0.0886  0.0044  -2.2395   0.0000   0.7519
  -4.000   0.4888   0.00614   0.00143  -0.2127  0.0843  0.0045  -1.9250   0.0000   0.6914
  -3.500   0.5478   0.00615   0.00143  -0.2132  0.0842  0.0045  -1.6263   0.0000   0.6439
  -3.000   0.6068   0.00616   0.00144  -0.2137  0.0841  0.0046  -1.3435   0.0000   0.6057
  -2.500   0.6656   0.00620   0.00146  -0.2142  0.0838  0.0046  -1.0760   0.0000   0.5742
  -2.000   0.7226   0.00637   0.00154  -0.2144  0.0492  0.0049  -0.9622   0.0000   0.5480
  -1.500   0.7807   0.00645   0.00160  -0.2147  0.0458  0.0057  -1.0126   0.0000   0.5255
  -1.000   0.8388   0.00653   0.00166  -0.2151  0.0433  0.0066  -1.0650   0.0000   0.5061
  -0.500   0.8967   0.00662   0.00174  -0.2155  0.0411  0.0073  -1.1176   0.0000   0.4892
   0.000   0.9544   0.00671   0.00182  -0.2158  0.0389  0.0079  -1.1705   0.0000   0.4742
   0.500   1.0120   0.00681   0.00191  -0.2161  0.0382  0.0098  -1.2255   0.0000   0.4610
   1.000   1.0695   0.00691   0.00201  -0.2164  0.0400  0.0169  -1.2907   0.0000   0.4491
   1.500   1.1265   0.00703   0.00212  -0.2167  0.0391  0.0171  -1.3664   0.0000   0.4383
   2.000   1.1831   0.00718   0.00225  -0.2168  0.0373  0.0207  -1.4426   0.0000   0.4286
   2.500   1.2362   0.00762   0.00260  -0.2162  0.0015  0.0371  -1.5314   0.0000   0.4195
   3.500   1.3472   0.00803   0.00297  -0.2162  0.0013  0.0390  -1.7653   0.0000   0.4036
   4.000   1.4022   0.00826   0.00318  -0.2161  0.0013  0.0418  -1.9117   0.0000   0.3965
   4.500   1.4567   0.00850   0.00340  -0.2160  0.0013  0.0476  -2.0906   0.0000   0.3899
   5.500   1.5647   0.00901   0.00390  -0.2155  0.0013  0.0733  -2.4612   0.0000   0.3778
   6.000   1.6182   0.00929   0.00419  -0.2152  0.0012  0.1067  -2.6528   0.0000   0.3722
   6.500   1.6708   0.00959   0.00448  -0.2148  0.0012  0.1187  -2.8479   0.0000   0.3669
   7.500   1.7743   0.01026   0.00514  -0.2136  0.0012  0.1466  -3.2486   0.0000   0.3571
   8.000   1.8247   0.01063   0.00549  -0.2128  0.0012  0.1463  -3.4533   0.0000   0.3524
   8.500   1.8743   0.01102   0.00587  -0.2119  0.0012  0.1608  -3.6607   0.0000   0.3479
   9.000   1.9237   0.01141   0.00630  -0.2110  0.0012  0.2165  -3.9383   0.0000   0.3436
   9.500   1.9717   0.01184   0.00675  -0.2099  0.0012  0.2491  -4.3199   0.0000   0.3394
  10.000   2.0189   0.01229   0.00725  -0.2086  0.0012  0.3081  -4.9048   0.0000   0.3353
  10.500   2.0637   0.01280   0.00777  -0.2070  0.0011  0.3398  -5.5077   0.0000   0.3313
  12.500   2.1913   0.01559   0.01060  -0.1904  0.0010  0.3704  -7.8592   0.0000   0.3138
  13.500   2.2473   0.01774   0.01286  -0.1821  0.0009  0.4661  -9.1136   0.0000   0.3058
  14.000   2.2352   0.02121   0.01648  -0.1723  0.0011  0.4676  -9.4199   0.0000   0.3008
  14.500   2.2530   0.02319   0.01853  -0.1677  0.0015  0.4958  -9.9919   0.0000   0.2970
  15.000   2.2687   0.02561   0.02102  -0.1634  0.0019  0.5187  -10.5955   0.0000   0.2934
  15.500   2.2880   0.02800   0.02346  -0.1599  0.0024  0.5543  -11.2405   0.0000   0.2901
  16.000   2.3008   0.03103   0.02657  -0.1562  0.0028  0.5709  -11.8295   0.0000   0.2868
  16.500   2.3115   0.03450   0.03011  -0.1528  0.0032  0.6077  -12.4121   0.0000   0.2838
  17.000   2.3182   0.03843   0.03412  -0.1495  0.0035  0.6307  -12.9708   0.0000   0.2808
  17.500   2.3211   0.04293   0.03870  -0.1464  0.0041  0.6559  -13.5039   0.0000   0.2781


