XFLR5 v6.02 Beta

 Calculated polar for: WORTMANN FX 63-137

 1 1 Reynolds number fixed          Mach number fixed         

 xtrf =   1.000 (top)        1.000 (bottom)
 Mach =   0.000     Re =    38.500 e 6     Ncrit =   9.000

  alpha     CL        CD       CDp       CM    Top Xtr Bot Xtr   Cpmin    Chinge    XCp    
 ------- -------- --------- --------- -------- ------- ------- -------- --------- ---------
 -21.500  -1.1678   0.05498   0.05186  -0.1497  0.5310  0.0019  -26.0076   0.0000   0.0859
 -21.000  -1.2063   0.04401   0.04076  -0.1585  0.5308  0.0019  -26.3888   0.0000   0.0849
 -20.500  -1.2259   0.03599   0.03256  -0.1649  0.4945  0.0019  -26.3719   0.0000   0.0835
 -20.000  -1.2332   0.02984   0.02631  -0.1697  0.4852  0.0019  -26.1080   0.0000   0.0821
 -19.500  -1.2238   0.02565   0.02206  -0.1726  0.4794  0.0020  -25.5486   0.0000   0.0801
 -19.000  -1.2112   0.02180   0.01815  -0.1752  0.4730  0.0020  -24.9331   0.0000   0.0778
 -18.500  -1.1917   0.01880   0.01510  -0.1772  0.4673  0.0021  -24.2098   0.0000   0.0749
 -18.000  -1.1474   0.01628   0.01251  -0.1823  0.4657  0.0022  -23.1894   0.0000   0.0655
 -17.500  -1.0951   0.01453   0.01059  -0.1872  0.4007  0.0023  -22.0746   0.0000   0.0541
 -17.000  -1.0438   0.01357   0.00952  -0.1888  0.3597  0.0024  -20.9603   0.0000   0.0448
 -16.500  -0.9895   0.01270   0.00861  -0.1903  0.3502  0.0025  -19.8334   0.0000   0.0339
 -16.000  -0.9340   0.01194   0.00780  -0.1916  0.3406  0.0027  -18.7161   0.0000   0.0213
 -15.500  -0.8774   0.01125   0.00707  -0.1929  0.3388  0.0028  -17.6145   0.0000   0.0069
 -15.000  -0.8200   0.01063   0.00643  -0.1941  0.3379  0.0030  -16.5326   0.0000  -0.0097
 -14.500  -0.7638   0.01018   0.00586  -0.1949  0.2825  0.0032  -15.4911   0.0000  -0.0281
 -14.000  -0.7055   0.00970   0.00534  -0.1960  0.2772  0.0034  -14.4567   0.0000  -0.0508
 -13.500  -0.6480   0.00935   0.00489  -0.1968  0.2356  0.0035  -13.5359   0.0000  -0.0769
 -13.000  -0.5890   0.00897   0.00448  -0.1978  0.2267  0.0036  -12.6327   0.0000  -0.1095
 -12.500  -0.5298   0.00863   0.00411  -0.1987  0.2213  0.0037  -11.7544   0.0000  -0.1495
 -12.000  -0.4714   0.00840   0.00379  -0.1994  0.1744  0.0038  -10.9113   0.0000  -0.1985
 -11.500  -0.4119   0.00813   0.00349  -0.2003  0.1748  0.0039  -10.0831   0.0000  -0.2634
 -11.000  -0.3522   0.00789   0.00322  -0.2012  0.1702  0.0039  -9.2864   0.0000  -0.3506
 -10.500  -0.2925   0.00767   0.00297  -0.2020  0.1697  0.0040  -8.5178   0.0000  -0.4737
 -10.000  -0.2326   0.00747   0.00275  -0.2029  0.1690  0.0040  -7.7779   0.0000  -0.6605
  -9.500  -0.1727   0.00729   0.00255  -0.2037  0.1686  0.0041  -7.0677   0.0000  -0.9773
  -9.000  -0.1137   0.00719   0.00237  -0.2043  0.1374  0.0041  -6.3941   0.0000  -1.6148
  -8.500  -0.0539   0.00706   0.00222  -0.2051  0.1321  0.0041  -5.7414   0.0000  -3.6887
  -8.000   0.0060   0.00694   0.00208  -0.2059  0.1271  0.0042  -5.1179   0.0000  35.9503
  -7.500   0.0658   0.00683   0.00195  -0.2066  0.1240  0.0042  -4.5240   0.0000   3.4845
  -7.000   0.1256   0.00674   0.00184  -0.2073  0.1238  0.0043  -4.0506   0.0000   1.9465
  -6.500   0.1853   0.00667   0.00175  -0.2081  0.1235  0.0043  -3.6596   0.0000   1.4010
  -6.000   0.2450   0.00661   0.00168  -0.2087  0.1232  0.0043  -3.2838   0.0000   1.1217
  -5.500   0.3046   0.00656   0.00162  -0.2094  0.1226  0.0044  -2.9233   0.0000   0.9520
  -5.000   0.3634   0.00659   0.00161  -0.2099  0.1049  0.0044  -2.5793   0.0000   0.8385
  -4.500   0.4225   0.00659   0.00157  -0.2105  0.1005  0.0045  -2.2508   0.0000   0.7565
  -4.000   0.4814   0.00661   0.00156  -0.2110  0.0941  0.0045  -1.9379   0.0000   0.6946
  -3.500   0.5403   0.00662   0.00156  -0.2115  0.0875  0.0046  -1.6398   0.0000   0.6462
  -3.000   0.5992   0.00664   0.00157  -0.2120  0.0849  0.0052  -1.3572   0.0000   0.6073
  -2.500   0.6579   0.00668   0.00159  -0.2125  0.0842  0.0049  -1.0893   0.0000   0.5754
  -2.000   0.7165   0.00672   0.00162  -0.2130  0.0840  0.0059  -0.9586   0.0000   0.5487
  -1.500   0.7748   0.00678   0.00167  -0.2134  0.0824  0.0073  -1.0089   0.0000   0.5259
  -1.000   0.8314   0.00698   0.00179  -0.2135  0.0551  0.0084  -1.0600   0.0000   0.5065
  -0.500   0.8891   0.00708   0.00187  -0.2138  0.0505  0.0094  -1.1124   0.0000   0.4894
   0.000   0.9468   0.00719   0.00196  -0.2142  0.0476  0.0150  -1.1650   0.0000   0.4743
   0.500   1.0039   0.00732   0.00207  -0.2144  0.0449  0.0158  -1.2192   0.0000   0.4610
   1.000   1.0613   0.00741   0.00217  -0.2147  0.0474  0.0170  -1.2836   0.0000   0.4490
   1.500   1.1180   0.00756   0.00229  -0.2149  0.0459  0.0172  -1.3589   0.0000   0.4382
   2.000   1.1745   0.00771   0.00243  -0.2150  0.0439  0.0199  -1.4349   0.0000   0.4284
   2.500   1.2269   0.00821   0.00283  -0.2143  0.0026  0.0374  -1.5216   0.0000   0.4193
   3.000   1.2822   0.00843   0.00302  -0.2143  0.0019  0.0381  -1.6350   0.0000   0.4110
   3.500   1.3372   0.00866   0.00323  -0.2142  0.0015  0.0430  -1.7524   0.0000   0.4033
   4.000   1.3918   0.00890   0.00346  -0.2140  0.0018  0.0463  -1.8940   0.0000   0.3961
   5.000   1.4998   0.00943   0.00398  -0.2135  0.0013  0.0672  -2.2534   0.0000   0.3832
   5.500   1.5531   0.00972   0.00426  -0.2132  0.0013  0.0827  -2.4392   0.0000   0.3773
   6.000   1.6065   0.01000   0.00459  -0.2129  0.0012  0.1451  -2.6299   0.0000   0.3718
   6.500   1.6583   0.01034   0.00491  -0.2123  0.0012  0.1472  -2.8228   0.0000   0.3665
   7.000   1.7096   0.01070   0.00526  -0.2117  0.0012  0.1664  -3.0194   0.0000   0.3614
   7.500   1.7604   0.01106   0.00564  -0.2110  0.0012  0.1946  -3.2195   0.0000   0.3565
   8.000   1.8098   0.01147   0.00604  -0.2100  0.0012  0.1945  -3.4212   0.0000   0.3518
   8.500   1.8592   0.01188   0.00649  -0.2091  0.0012  0.2498  -3.6271   0.0000   0.3473
   9.000   1.9075   0.01232   0.00697  -0.2080  0.0012  0.3072  -3.8911   0.0000   0.3430
   9.500   1.9530   0.01282   0.00747  -0.2064  0.0012  0.3104  -4.2129   0.0000   0.3387
  10.000   1.9997   0.01330   0.00806  -0.2051  0.0011  0.4250  -4.7884   0.0000   0.3346
  10.500   2.0396   0.01389   0.00865  -0.2025  0.0011  0.4342  -5.3556   0.0000   0.3303
  11.000   2.0668   0.01456   0.00934  -0.1972  0.0011  0.4436  -5.8732   0.0000   0.3255
  11.500   2.0971   0.01535   0.01014  -0.1929  0.0010  0.4593  -6.4333   0.0000   0.3211
  12.000   2.1272   0.01625   0.01106  -0.1887  0.0010  0.4630  -7.0122   0.0000   0.3168
  12.500   2.1552   0.01729   0.01216  -0.1844  0.0010  0.4995  -7.5991   0.0000   0.3126
  13.000   2.1819   0.01853   0.01344  -0.1802  0.0010  0.5292  -8.1966   0.0000   0.3085
  13.500   2.2065   0.01996   0.01491  -0.1760  0.0009  0.5463  -8.7983   0.0000   0.3046
  14.000   2.2299   0.02160   0.01661  -0.1720  0.0009  0.5848  -9.4106   0.0000   0.3008
  14.500   2.2513   0.02349   0.01858  -0.1680  0.0009  0.6295  -10.0241   0.0000   0.2972
  15.000   2.2711   0.02569   0.02085  -0.1643  0.0009  0.6613  -10.6433   0.0000   0.2937
  15.500   2.2889   0.02822   0.02343  -0.1607  0.0008  0.6932  -11.2633   0.0000   0.2904
  16.000   2.3043   0.03112   0.02641  -0.1573  0.0007  0.7283  -11.8797   0.0000   0.2872
  17.000   2.2686   0.04388   0.03956  -0.1471  0.0014  0.8043  -12.4820   0.0000   0.2811
  17.500   2.2795   0.04921   0.04518  -0.1464  0.0017  1.0000  -13.0887   0.0000   0.2791
  18.000   2.2822   0.05454   0.05058  -0.1445  0.0023  1.0000  -13.6624   0.0000   0.2768
  18.500   2.2778   0.06094   0.05706  -0.1428  0.0026  1.0000  -14.1384   0.0000   0.2747
  19.000   2.2712   0.06779   0.06399  -0.1415  0.0028  1.0000  -14.5967   0.0000   0.2729
  19.500   2.2606   0.07535   0.07165  -0.1408  0.0030  1.0000  -15.0183   0.0000   0.2713


