XFLR5 v6.02 Beta

 Calculated polar for: WORTMANN FX 63-137

 1 1 Reynolds number fixed          Mach number fixed         

 xtrf =   1.000 (top)        1.000 (bottom)
 Mach =   0.000     Re =    18.250 e 6     Ncrit =   9.000

  alpha     CL        CD       CDp       CM    Top Xtr Bot Xtr   Cpmin    Chinge    XCp    
 ------- -------- --------- --------- -------- ------- ------- -------- --------- ---------
 -20.000  -1.1426   0.04056   0.03753  -0.1584  0.7202  0.0031  -24.4285   0.0000   0.0796
 -19.500  -1.1479   0.03396   0.03078  -0.1642  0.6997  0.0031  -24.1832   0.0000   0.0768
 -19.000  -1.1464   0.02850   0.02515  -0.1689  0.6661  0.0032  -23.7975   0.0000   0.0740
 -18.500  -1.1348   0.02419   0.02075  -0.1723  0.6569  0.0032  -23.2373   0.0000   0.0708
 -18.000  -1.1215   0.02094   0.01738  -0.1736  0.6283  0.0033  -22.6188   0.0000   0.0691
 -17.500  -1.0865   0.01813   0.01447  -0.1778  0.6173  0.0033  -21.7429   0.0000   0.0612
 -17.000  -1.0367   0.01582   0.01205  -0.1836  0.5946  0.0034  -20.7016   0.0000   0.0485
 -16.000  -0.9343   0.01373   0.00960  -0.1879  0.4840  0.0035  -18.5692   0.0000   0.0255
 -15.500  -0.8793   0.01294   0.00874  -0.1893  0.4717  0.0036  -17.4868   0.0000   0.0116
 -15.000  -0.8230   0.01223   0.00798  -0.1907  0.4656  0.0036  -16.4181   0.0000  -0.0046
 -14.500  -0.7659   0.01158   0.00730  -0.1919  0.4646  0.0037  -15.3681   0.0000  -0.0234
 -14.000  -0.7111   0.01117   0.00671  -0.1926  0.4028  0.0037  -14.3698   0.0000  -0.0437
 -13.500  -0.6556   0.01079   0.00615  -0.1933  0.3377  0.0038  -13.3970   0.0000  -0.0678
 -12.500  -0.5396   0.01000   0.00520  -0.1951  0.3008  0.0039  -11.5844   0.0000  -0.1356
 -12.000  -0.4809   0.00964   0.00479  -0.1961  0.2883  0.0039  -10.7241   0.0000  -0.1827
 -11.500  -0.4218   0.00934   0.00444  -0.1970  0.2805  0.0040  -9.8503   0.0000  -0.2435
 -11.000  -0.3623   0.00902   0.00409  -0.1980  0.2766  0.0040  -9.0311   0.0000  -0.3249
 -10.500  -0.3045   0.00885   0.00378  -0.1986  0.2215  0.0041  -8.2532   0.0000  -0.4338
 -10.000  -0.2447   0.00858   0.00347  -0.1996  0.2202  0.0041  -7.4953   0.0000  -0.6021
  -9.500  -0.1855   0.00839   0.00319  -0.2004  0.1935  0.0042  -6.7916   0.0000  -0.8745
  -9.000  -0.1258   0.00818   0.00291  -0.2012  0.1785  0.0042  -6.1623   0.0000  -1.4101
  -8.500  -0.0658   0.00798   0.00268  -0.2021  0.1703  0.0042  -5.5117   0.0000  -2.9290
  -8.000  -0.0057   0.00780   0.00248  -0.2030  0.1695  0.0043  -4.9007   0.0000  -36.3145
  -7.500   0.0544   0.00765   0.00230  -0.2039  0.1685  0.0043  -4.3373   0.0000   4.1133
  -6.500   0.1734   0.00748   0.00203  -0.2053  0.1434  0.0044  -3.5702   0.0000   1.4637
  -6.000   0.2332   0.00740   0.00193  -0.2060  0.1380  0.0044  -3.2578   0.0000   1.1537
  -5.000   0.3524   0.00729   0.00179  -0.2074  0.1270  0.0044  -2.5712   0.0000   0.8496
  -4.500   0.4119   0.00725   0.00175  -0.2080  0.1240  0.0045  -2.2565   0.0000   0.7636
  -3.500   0.5301   0.00724   0.00171  -0.2092  0.1226  0.0046  -1.6523   0.0000   0.6495
  -3.000   0.5876   0.00738   0.00176  -0.2094  0.0986  0.0073  -1.3748   0.0000   0.6100
  -2.500   0.6461   0.00743   0.00178  -0.2099  0.0950  0.0083  -1.1082   0.0000   0.5773
  -2.000   0.7044   0.00748   0.00182  -0.2104  0.0893  0.0086  -0.9510   0.0000   0.5500
  -1.500   0.7630   0.00752   0.00186  -0.2109  0.0860  0.0143  -1.0008   0.0000   0.5269
  -1.000   0.8210   0.00760   0.00193  -0.2113  0.0841  0.0152  -1.0529   0.0000   0.5070
  -0.500   0.8788   0.00769   0.00201  -0.2116  0.0833  0.0155  -1.1052   0.0000   0.4897
   0.000   0.9363   0.00779   0.00210  -0.2119  0.0826  0.0158  -1.1578   0.0000   0.4745
   0.500   0.9923   0.00801   0.00226  -0.2119  0.0667  0.0161  -1.2104   0.0000   0.4610
   1.000   1.0509   0.00799   0.00230  -0.2125  0.0828  0.0172  -1.2746   0.0000   0.4489
   1.500   1.1077   0.00813   0.00243  -0.2127  0.0816  0.0181  -1.3498   0.0000   0.4380
   2.000   1.1616   0.00849   0.00268  -0.2123  0.0600  0.0236  -1.4233   0.0000   0.4281
   2.500   1.2158   0.00882   0.00297  -0.2120  0.0368  0.0379  -1.5108   0.0000   0.4190
   3.000   1.2669   0.00938   0.00341  -0.2111  0.0037  0.0406  -1.6158   0.0000   0.4105
   3.500   1.3213   0.00965   0.00366  -0.2109  0.0030  0.0504  -1.7319   0.0000   0.4028
   4.000   1.3757   0.00990   0.00392  -0.2108  0.0036  0.0657  -1.8658   0.0000   0.3956
   4.500   1.4289   0.01021   0.00421  -0.2104  0.0029  0.0683  -2.0412   0.0000   0.3889
   5.000   1.4819   0.01052   0.00452  -0.2099  0.0022  0.0831  -2.2206   0.0000   0.3826
   5.500   1.5344   0.01084   0.00485  -0.2095  0.0016  0.1123  -2.4039   0.0000   0.3766
   6.000   1.5876   0.01115   0.00524  -0.2092  0.0013  0.1957  -2.5929   0.0000   0.3711
   7.000   1.6893   0.01191   0.00604  -0.2078  0.0012  0.2666  -2.9772   0.0000   0.3606
   7.500   1.7410   0.01227   0.00652  -0.2074  0.0012  0.3677  -3.1774   0.0000   0.3559
   8.000   1.7863   0.01280   0.00697  -0.2056  0.0012  0.3071  -3.3706   0.0000   0.3509
   8.500   1.8356   0.01324   0.00753  -0.2048  0.0012  0.4203  -3.5746   0.0000   0.3465
   9.000   1.8801   0.01379   0.00809  -0.2030  0.0012  0.4365  -3.8117   0.0000   0.3420
   9.500   1.9211   0.01438   0.00871  -0.2005  0.0012  0.4650  -4.0737   0.0000   0.3375
  10.000   1.9529   0.01503   0.00945  -0.1963  0.0011  0.5222  -4.5134   0.0000   0.3326
  10.500   1.9841   0.01582   0.01026  -0.1920  0.0011  0.5306  -5.0166   0.0000   0.3280
  11.000   2.0158   0.01671   0.01120  -0.1881  0.0011  0.5591  -5.5437   0.0000   0.3235
  11.500   2.0449   0.01776   0.01229  -0.1840  0.0011  0.5854  -6.0774   0.0000   0.3192
  12.000   2.0734   0.01897   0.01357  -0.1801  0.0011  0.6266  -6.6298   0.0000   0.3150
  12.500   2.0995   0.02039   0.01506  -0.1761  0.0010  0.6551  -7.1960   0.0000   0.3110
  13.000   2.1241   0.02204   0.01677  -0.1722  0.0010  0.6910  -7.7633   0.0000   0.3071
  13.500   2.1453   0.02394   0.01874  -0.1681  0.0009  0.7193  -8.3252   0.0000   0.3033
  15.000   2.2090   0.03139   0.02664  -0.1591  0.0009  1.0000  -10.1120   0.0000   0.2934
  15.500   2.2230   0.03460   0.02990  -0.1558  0.0008  1.0000  -10.6832   0.0000   0.2902
  16.000   2.2342   0.03822   0.03358  -0.1527  0.0008  1.0000  -11.2459   0.0000   0.2872
  16.500   2.2415   0.04229   0.03770  -0.1498  0.0008  1.0000  -11.7875   0.0000   0.2844
  17.000   2.2468   0.04693   0.04241  -0.1472  0.0008  1.0000  -12.3227   0.0000   0.2817
  17.500   2.2512   0.05193   0.04749  -0.1450  0.0008  1.0000  -12.8597   0.0000   0.2793
  18.000   2.2554   0.05713   0.05276  -0.1432  0.0007  1.0000  -13.4062   0.0000   0.2770
  18.500   2.2583   0.06263   0.05833  -0.1417  0.0007  1.0000  -13.9486   0.0000   0.2748
  19.000   2.2535   0.06929   0.06508  -0.1406  0.0007  1.0000  -14.4233   0.0000   0.2730
  19.500   2.2453   0.07650   0.07239  -0.1400  0.0006  1.0000  -14.8698   0.0000   0.2714
  20.000   2.2342   0.08390   0.07990  -0.1397  0.0006  1.0000  -15.2893   0.0000   0.2701


