XFLR5 v6.02 Beta

 Calculated polar for: WORTMANN FX 63-137

 1 1 Reynolds number fixed          Mach number fixed         

 xtrf =   1.000 (top)        1.000 (bottom)
 Mach =   0.000     Re =    29.750 e 6     Ncrit =   9.000

  alpha     CL        CD       CDp       CM    Top Xtr Bot Xtr   Cpmin    Chinge    XCp    
 ------- -------- --------- --------- -------- ------- ------- -------- --------- ---------
 -21.000  -1.1614   0.04986   0.04674  -0.1529  0.5957  0.0022  -25.5281   0.0000   0.0839
 -20.000  -1.2030   0.03311   0.02968  -0.1665  0.5532  0.0023  -25.5723   0.0000   0.0808
 -19.500  -1.1996   0.02823   0.02471  -0.1701  0.5337  0.0023  -25.1260   0.0000   0.0789
 -19.000  -1.1913   0.02377   0.02018  -0.1735  0.5318  0.0024  -24.5978   0.0000   0.0765
 -18.500  -1.1802   0.02032   0.01667  -0.1749  0.5308  0.0025  -23.9953   0.0000   0.0752
 -18.000  -1.1435   0.01749   0.01378  -0.1794  0.5305  0.0026  -23.0783   0.0000   0.0675
 -17.500  -1.0938   0.01516   0.01127  -0.1856  0.4666  0.0027  -22.0180   0.0000   0.0553
 -17.000  -1.0437   0.01406   0.01001  -0.1876  0.4024  0.0028  -20.9272   0.0000   0.0459
 -16.500  -0.9897   0.01309   0.00900  -0.1893  0.4008  0.0030  -19.8063   0.0000   0.0348
 -16.000  -0.9343   0.01226   0.00813  -0.1908  0.4005  0.0031  -18.6924   0.0000   0.0223
 -15.500  -0.8790   0.01161   0.00740  -0.1920  0.3705  0.0033  -17.6048   0.0000   0.0085
 -15.000  -0.8224   0.01101   0.00673  -0.1931  0.3611  0.0034  -16.5281   0.0000  -0.0078
 -14.500  -0.7650   0.01049   0.00616  -0.1941  0.3420  0.0035  -15.4730   0.0000  -0.0267
 -14.000  -0.7087   0.01013   0.00566  -0.1948  0.2825  0.0036  -14.4576   0.0000  -0.0479
 -13.500  -0.6502   0.00970   0.00519  -0.1958  0.2772  0.0037  -13.5089   0.0000  -0.0744
 -13.000  -0.5921   0.00936   0.00477  -0.1967  0.2492  0.0037  -12.6146   0.0000  -0.1058
 -12.500  -0.5333   0.00903   0.00439  -0.1976  0.2405  0.0038  -11.7414   0.0000  -0.1448
 -12.000  -0.4749   0.00877   0.00405  -0.1983  0.1950  0.0038  -10.8988   0.0000  -0.1930
 -11.500  -0.4147   0.00844   0.00372  -0.1994  0.2205  0.0039  -10.0645   0.0000  -0.2577
 -11.000  -0.3561   0.00825   0.00343  -0.2001  0.1845  0.0040  -9.2767   0.0000  -0.3410
 -10.500  -0.2964   0.00801   0.00317  -0.2010  0.1772  0.0040  -8.5093   0.0000  -0.4604
 -10.000  -0.2366   0.00780   0.00293  -0.2018  0.1703  0.0040  -7.7704   0.0000  -0.6408
  -9.500  -0.1767   0.00760   0.00271  -0.2027  0.1696  0.0041  -7.0621   0.0000  -0.9441
  -8.500  -0.0576   0.00733   0.00234  -0.2042  0.1420  0.0041  -5.7395   0.0000  -3.4194
  -8.000   0.0021   0.00722   0.00219  -0.2049  0.1367  0.0042  -5.1187   0.0000  99.6889
  -7.500   0.0619   0.00711   0.00206  -0.2057  0.1317  0.0042  -4.5267   0.0000   3.6705
  -7.000   0.1217   0.00701   0.00194  -0.2064  0.1280  0.0043  -4.0505   0.0000   1.9926
  -6.500   0.1815   0.00693   0.00184  -0.2071  0.1241  0.0043  -3.6610   0.0000   1.4203
  -6.000   0.2412   0.00687   0.00176  -0.2078  0.1238  0.0043  -3.2866   0.0000   1.1318
  -5.500   0.3007   0.00681   0.00170  -0.2085  0.1234  0.0044  -2.9270   0.0000   0.9579
  -5.000   0.3602   0.00678   0.00165  -0.2092  0.1230  0.0044  -2.5807   0.0000   0.8416
  -4.500   0.4196   0.00675   0.00161  -0.2098  0.1222  0.0045  -2.2530   0.0000   0.7583
  -4.000   0.4779   0.00682   0.00162  -0.2102  0.1023  0.0045  -1.9425   0.0000   0.6962
  -3.500   0.5365   0.00687   0.00162  -0.2106  0.0920  0.0046  -1.6461   0.0000   0.6475
  -3.000   0.5953   0.00689   0.00163  -0.2112  0.0889  0.0057  -1.3639   0.0000   0.6082
  -2.500   0.6540   0.00693   0.00165  -0.2117  0.0858  0.0060  -1.0962   0.0000   0.5760
  -2.000   0.7125   0.00697   0.00168  -0.2121  0.0842  0.0067  -0.9561   0.0000   0.5491
  -1.000   0.8290   0.00710   0.00180  -0.2130  0.0823  0.0095  -1.0585   0.0000   0.5066
  -0.500   0.8856   0.00730   0.00192  -0.2131  0.0612  0.0150  -1.1099   0.0000   0.4895
   0.000   0.9429   0.00742   0.00202  -0.2133  0.0516  0.0154  -1.1623   0.0000   0.4744
   0.500   1.0000   0.00755   0.00213  -0.2136  0.0495  0.0159  -1.2162   0.0000   0.4610
   1.000   1.0573   0.00765   0.00224  -0.2139  0.0511  0.0171  -1.2802   0.0000   0.4490
   1.500   1.1141   0.00779   0.00236  -0.2141  0.0509  0.0173  -1.3555   0.0000   0.4381
   2.000   1.1703   0.00797   0.00252  -0.2141  0.0479  0.0210  -1.4311   0.0000   0.4283
   2.500   1.2220   0.00852   0.00295  -0.2133  0.0033  0.0375  -1.5165   0.0000   0.4191
   3.000   1.2772   0.00875   0.00315  -0.2132  0.0024  0.0383  -1.6287   0.0000   0.4108
   3.500   1.3320   0.00898   0.00337  -0.2131  0.0019  0.0453  -1.7457   0.0000   0.4031
   4.000   1.3864   0.00924   0.00362  -0.2129  0.0023  0.0489  -1.8848   0.0000   0.3960
   4.500   1.4406   0.00950   0.00388  -0.2127  0.0018  0.0662  -2.0618   0.0000   0.3893
   5.000   1.4939   0.00979   0.00415  -0.2124  0.0014  0.0711  -2.2426   0.0000   0.3830
   6.000   1.6000   0.01039   0.00479  -0.2116  0.0012  0.1466  -2.6174   0.0000   0.3715
   6.500   1.6517   0.01074   0.00514  -0.2110  0.0012  0.1666  -2.8096   0.0000   0.3662
   7.000   1.7030   0.01110   0.00551  -0.2104  0.0012  0.1954  -3.0056   0.0000   0.3611
   7.500   1.7529   0.01149   0.00591  -0.2095  0.0012  0.2132  -3.2037   0.0000   0.3562
   8.000   1.8015   0.01193   0.00633  -0.2084  0.0012  0.2083  -3.4036   0.0000   0.3515
   8.500   1.8516   0.01232   0.00683  -0.2077  0.0012  0.3091  -3.6102   0.0000   0.3471
   9.000   1.8982   0.01281   0.00732  -0.2063  0.0012  0.3347  -3.8644   0.0000   0.3426
   9.500   1.9436   0.01332   0.00786  -0.2047  0.0011  0.3692  -4.1586   0.0000   0.3383
  10.500   2.0186   0.01449   0.00915  -0.1984  0.0011  0.4745  -5.2280   0.0000   0.3294
  11.000   2.0494   0.01523   0.00992  -0.1940  0.0011  0.4948  -5.7612   0.0000   0.3248
  11.500   2.0797   0.01610   0.01082  -0.1898  0.0011  0.5042  -6.3156   0.0000   0.3204
  12.000   2.1089   0.01710   0.01185  -0.1857  0.0010  0.5313  -6.8846   0.0000   0.3161
  12.500   2.1362   0.01827   0.01305  -0.1814  0.0010  0.5453  -7.4623   0.0000   0.3120
  13.000   2.1629   0.01960   0.01443  -0.1774  0.0010  0.5679  -8.0546   0.0000   0.3080
  13.500   2.1880   0.02116   0.01608  -0.1736  0.0009  0.6243  -8.6552   0.0000   0.3042
  14.000   2.2082   0.02303   0.01801  -0.1693  0.0009  0.6558  -9.2384   0.0000   0.3004
  14.500   2.2285   0.02517   0.02022  -0.1655  0.0009  0.6906  -9.8376   0.0000   0.2968
  15.000   2.2473   0.02759   0.02270  -0.1619  0.0009  0.7211  -10.4427   0.0000   0.2934
  15.500   2.2647   0.03036   0.02557  -0.1586  0.0008  0.7694  -11.0524   0.0000   0.2902
  16.000   2.2811   0.03348   0.02880  -0.1558  0.0008  0.8321  -11.6696   0.0000   0.2872
  16.500   2.2992   0.03702   0.03257  -0.1540  0.0008  1.0000  -12.3166   0.0000   0.2845
  17.000   2.3066   0.04099   0.03659  -0.1509  0.0007  1.0000  -12.8852   0.0000   0.2817
  17.500   2.3104   0.04567   0.04133  -0.1481  0.0006  1.0000  -13.4347   0.0000   0.2790
  19.000   2.2394   0.07160   0.06774  -0.1408  0.0018  1.0000  -14.2662   0.0000   0.2734
  19.500   2.2351   0.07840   0.07462  -0.1404  0.0020  1.0000  -14.7617   0.0000   0.2718


