XFLR5 v6.02 Beta

 Calculated polar for: WORTMANN FX 63-137

 1 1 Reynolds number fixed          Mach number fixed         

 xtrf =   1.000 (top)        1.000 (bottom)
 Mach =   0.000     Re =     5.300 e 6     Ncrit =   9.000

  alpha     CL        CD       CDp       CM    Top Xtr Bot Xtr   Cpmin    Chinge    XCp    
 ------- -------- --------- --------- -------- ------- ------- -------- --------- ---------
 -16.000  -0.7510   0.04121   0.03869  -0.1520  0.8761  0.0041  -14.9460   0.0000   0.0193
 -15.500  -0.7644   0.03249   0.02958  -0.1604  0.8112  0.0042  -14.9470   0.0000   0.0139
 -15.000  -0.7623   0.02655   0.02340  -0.1657  0.7768  0.0042  -14.6648   0.0000   0.0080
 -14.500  -0.7472   0.02234   0.01899  -0.1696  0.7453  0.0042  -14.1930   0.0000  -0.0004
 -14.000  -0.7059   0.01895   0.01543  -0.1763  0.7216  0.0043  -13.4579   0.0000  -0.0228
 -13.500  -0.6496   0.01650   0.01286  -0.1832  0.7175  0.0043  -12.5733   0.0000  -0.0550
 -13.000  -0.5979   0.01545   0.01166  -0.1851  0.6795  0.0044  -11.6986   0.0000  -0.0828
  -6.000   0.2159   0.00844   0.00226  -0.2018  0.2753  0.0059  -3.0469   0.0000   1.2065
  -5.500   0.2710   0.00873   0.00256  -0.2016  0.2427  0.0058  -2.5554   0.0000   1.0096
  -5.000   0.3303   0.00867   0.00244  -0.2022  0.2275  0.0055  -2.2591   0.0000   0.8741
  -4.500   0.3905   0.00856   0.00227  -0.2031  0.2209  0.0052  -1.9946   0.0000   0.7790
  -4.000   0.4513   0.00841   0.00204  -0.2040  0.2182  0.0049  -1.8123   0.0000   0.7087
  -3.500   0.5091   0.00852   0.00203  -0.2044  0.1885  0.0049  -1.6124   0.0000   0.6564
  -3.000   0.5683   0.00851   0.00202  -0.2051  0.1788  0.0149  -1.3902   0.0000   0.6145
  -2.500   0.6267   0.00855   0.00204  -0.2056  0.1698  0.0155  -1.1108   0.0000   0.5804
  -2.000   0.6828   0.00880   0.00214  -0.2056  0.1385  0.0155  -0.9374   0.0000   0.5526
  -1.500   0.7405   0.00889   0.00220  -0.2060  0.1309  0.0160  -0.9853   0.0000   0.5287
  -1.000   0.7982   0.00898   0.00226  -0.2063  0.1241  0.0164  -1.0370   0.0000   0.5082
  -0.500   0.8557   0.00907   0.00235  -0.2066  0.1221  0.0166  -1.0889   0.0000   0.4904
   1.500   1.0796   0.00987   0.00301  -0.2068  0.0877  0.0255  -1.3232   0.0000   0.4376
   2.000   1.1357   0.01004   0.00320  -0.2069  0.0843  0.0373  -1.3984   0.0000   0.4275
   2.500   1.1874   0.01054   0.00359  -0.2062  0.0585  0.0466  -1.4790   0.0000   0.4183
   3.000   1.2419   0.01079   0.00386  -0.2061  0.0501  0.0735  -1.5736   0.0000   0.4098
   3.500   1.2955   0.01111   0.00418  -0.2058  0.0446  0.1008  -1.6928   0.0000   0.4020
   4.000   1.3491   0.01137   0.00446  -0.2055  0.0449  0.1118  -1.8188   0.0000   0.3947
   4.500   1.4019   0.01171   0.00482  -0.2051  0.0377  0.1563  -1.9917   0.0000   0.3880
   5.000   1.4563   0.01196   0.00519  -0.2052  0.0361  0.2477  -2.1734   0.0000   0.3818
   5.500   1.5076   0.01253   0.00588  -0.2048  0.0169  0.3999  -2.3405   0.0000   0.3760
   6.000   1.5539   0.01330   0.00673  -0.2033  0.0032  0.4751  -2.5269   0.0000   0.3702
   6.500   1.6020   0.01380   0.00725  -0.2021  0.0023  0.4987  -2.7091   0.0000   0.3647
   7.000   1.6489   0.01432   0.00781  -0.2007  0.0017  0.5317  -2.8932   0.0000   0.3594
   7.500   1.6934   0.01491   0.00840  -0.1988  0.0014  0.5512  -3.0775   0.0000   0.3542
   8.000   1.7308   0.01554   0.00906  -0.1956  0.0013  0.5636  -3.2521   0.0000   0.3489
   8.500   1.7659   0.01626   0.00984  -0.1920  0.0013  0.5889  -3.4253   0.0000   0.3438
   9.000   1.8001   0.01709   0.01075  -0.1884  0.0013  0.6336  -3.5998   0.0000   0.3388
   9.500   1.8333   0.01805   0.01179  -0.1849  0.0012  0.6763  -3.8202   0.0000   0.3341
  10.000   1.8630   0.01918   0.01299  -0.1809  0.0012  0.6996  -4.0481   0.0000   0.3294
  10.500   1.8912   0.02052   0.01442  -0.1769  0.0012  0.7266  -4.3969   0.0000   0.3249
  11.000   1.9179   0.02211   0.01613  -0.1731  0.0012  0.7700  -4.8158   0.0000   0.3206
  11.500   1.9409   0.02409   0.01830  -0.1691  0.0012  0.8292  -5.1572   0.0000   0.3164
  14.500   2.0400   0.04166   0.03648  -0.1492  0.0010  1.0000  -8.1112   0.0000   0.2957
  15.000   2.0464   0.04617   0.04109  -0.1464  0.0010  1.0000  -8.5534   0.0000   0.2929
  15.500   2.0533   0.05092   0.04594  -0.1442  0.0009  1.0000  -9.0084   0.0000   0.2903
  16.000   2.0522   0.05688   0.05207  -0.1421  0.0009  1.0000  -9.3577   0.0000   0.2880
  16.500   2.0503   0.06316   0.05850  -0.1404  0.0009  1.0000  -9.7066   0.0000   0.2859
  17.000   2.0472   0.06982   0.06529  -0.1394  0.0009  1.0000  -10.1084   0.0000   0.2842
  17.500   2.0421   0.07689   0.07249  -0.1389  0.0009  1.0000  -10.5073   0.0000   0.2827
  18.000   2.0332   0.08437   0.08011  -0.1387  0.0009  1.0000  -10.8775   0.0000   0.2815
  18.500   2.0223   0.09257   0.08844  -0.1392  0.0009  1.0000  -11.2266   0.0000   0.2807
  19.000   2.0198   0.09950   0.09548  -0.1397  0.0008  1.0000  -11.6634   0.0000   0.2796
  19.500   2.0057   0.10847   0.10460  -0.1413  0.0008  1.0000  -11.9751   0.0000   0.2794
  20.000   1.9906   0.11765   0.11392  -0.1435  0.0008  1.0000  -12.2685   0.0000   0.2795


