XFLR5 v6.02 Beta

 Calculated polar for: WORTMANN FX 63-137

 1 1 Reynolds number fixed          Mach number fixed         

 xtrf =   1.000 (top)        1.000 (bottom)
 Mach =   0.000     Re =    24.500 e 6     Ncrit =   9.000

  alpha     CL        CD       CDp       CM    Top Xtr Bot Xtr   Cpmin    Chinge    XCp    
 ------- -------- --------- --------- -------- ------- ------- -------- --------- ---------
 -21.000  -1.1267   0.05480   0.05185  -0.1479  0.6590  0.0025  -24.8398   0.0000   0.0837
 -19.500  -1.1863   0.02955   0.02613  -0.1689  0.5973  0.0026  -24.8877   0.0000   0.0781
 -19.000  -1.1763   0.02526   0.02176  -0.1721  0.5949  0.0027  -24.3387   0.0000   0.0756
 -18.500  -1.1648   0.02147   0.01787  -0.1743  0.5678  0.0028  -23.7494   0.0000   0.0735
 -18.000  -1.1402   0.01848   0.01478  -0.1773  0.5558  0.0029  -22.9855   0.0000   0.0688
 -17.500  -1.0935   0.01593   0.01214  -0.1831  0.5368  0.0030  -21.9625   0.0000   0.0576
 -17.000  -1.0421   0.01445   0.01045  -0.1868  0.4655  0.0031  -20.8744   0.0000   0.0464
 -16.500  -0.9902   0.01353   0.00941  -0.1884  0.4280  0.0033  -19.7778   0.0000   0.0359
 -16.000  -0.9357   0.01272   0.00854  -0.1898  0.4152  0.0034  -18.6730   0.0000   0.0238
 -15.500  -0.8797   0.01201   0.00778  -0.1911  0.4057  0.0035  -17.5764   0.0000   0.0096
 -15.000  -0.8228   0.01138   0.00711  -0.1923  0.4012  0.0036  -16.4976   0.0000  -0.0067
 -13.500  -0.6529   0.01011   0.00551  -0.1948  0.2839  0.0037  -13.4831   0.0000  -0.0715
 -13.000  -0.5941   0.00969   0.00506  -0.1958  0.2780  0.0038  -12.5834   0.0000  -0.1031
 -12.500  -0.5350   0.00931   0.00464  -0.1968  0.2770  0.0038  -11.7080   0.0000  -0.1421
 -12.000  -0.4772   0.00907   0.00428  -0.1975  0.2292  0.0039  -10.8699   0.0000  -0.1890
 -11.500  -0.4176   0.00876   0.00394  -0.1985  0.2366  0.0039  -10.0357   0.0000  -0.2519
 -10.000  -0.2398   0.00808   0.00309  -0.2010  0.1815  0.0040  -7.7407   0.0000  -0.6253
  -9.500  -0.1799   0.00787   0.00285  -0.2018  0.1728  0.0041  -7.0355   0.0000  -0.9179
  -9.000  -0.1199   0.00768   0.00263  -0.2027  0.1692  0.0041  -6.3677   0.0000  -1.5044
  -8.500  -0.0600   0.00751   0.00244  -0.2035  0.1684  0.0041  -5.7187   0.0000  -3.2637
  -8.000  -0.0007   0.00742   0.00229  -0.2042  0.1448  0.0042  -5.1046   0.0000  -298.2798
  -7.500   0.0590   0.00732   0.00214  -0.2050  0.1394  0.0042  -4.5175   0.0000   3.8306
  -7.000   0.1187   0.00722   0.00202  -0.2057  0.1355  0.0043  -4.0438   0.0000   2.0310
  -6.500   0.1784   0.00714   0.00191  -0.2064  0.1310  0.0043  -3.6576   0.0000   1.4362
  -6.000   0.2381   0.00707   0.00183  -0.2071  0.1258  0.0043  -3.2858   0.0000   1.1400
  -5.500   0.2977   0.00701   0.00176  -0.2078  0.1239  0.0044  -2.9266   0.0000   0.9627
  -5.000   0.3572   0.00697   0.00170  -0.2085  0.1235  0.0044  -2.5820   0.0000   0.8446
  -4.500   0.4166   0.00695   0.00166  -0.2091  0.1231  0.0045  -2.2561   0.0000   0.7603
  -4.000   0.4758   0.00694   0.00164  -0.2097  0.1224  0.0045  -1.9438   0.0000   0.6971
  -3.500   0.5335   0.00706   0.00167  -0.2100  0.0965  0.0046  -1.6505   0.0000   0.6484
  -3.000   0.5923   0.00709   0.00168  -0.2105  0.0925  0.0062  -1.3688   0.0000   0.6089
  -2.500   0.6509   0.00712   0.00170  -0.2110  0.0892  0.0069  -1.1007   0.0000   0.5765
  -2.000   0.7094   0.00717   0.00174  -0.2114  0.0844  0.0075  -0.9541   0.0000   0.5495
  -1.500   0.7678   0.00722   0.00178  -0.2119  0.0841  0.0090  -1.0041   0.0000   0.5265
  -1.000   0.8261   0.00728   0.00184  -0.2124  0.0832  0.0147  -1.0564   0.0000   0.5067
  -0.500   0.8839   0.00737   0.00192  -0.2127  0.0822  0.0153  -1.1089   0.0000   0.4895
   0.000   0.9398   0.00761   0.00207  -0.2127  0.0618  0.0156  -1.1602   0.0000   0.4744
   0.500   0.9968   0.00775   0.00219  -0.2129  0.0521  0.0160  -1.2138   0.0000   0.4610
   1.000   1.0540   0.00786   0.00230  -0.2132  0.0580  0.0171  -1.2773   0.0000   0.4489
   1.500   1.1107   0.00799   0.00243  -0.2133  0.0561  0.0174  -1.3525   0.0000   0.4381
   2.000   1.1671   0.00815   0.00257  -0.2135  0.0513  0.0220  -1.4283   0.0000   0.4282
   2.500   1.2182   0.00876   0.00303  -0.2125  0.0039  0.0376  -1.5126   0.0000   0.4190
   3.000   1.2732   0.00899   0.00325  -0.2124  0.0029  0.0384  -1.6237   0.0000   0.4107
   3.500   1.3279   0.00924   0.00348  -0.2123  0.0023  0.0471  -1.7403   0.0000   0.4030
   4.000   1.3822   0.00950   0.00374  -0.2121  0.0028  0.0510  -1.8774   0.0000   0.3958
   4.500   1.4361   0.00977   0.00401  -0.2118  0.0022  0.0667  -2.0540   0.0000   0.3891
   5.000   1.4893   0.01007   0.00429  -0.2114  0.0016  0.0756  -2.2341   0.0000   0.3828
   5.500   1.5423   0.01038   0.00461  -0.2110  0.0013  0.1030  -2.4187   0.0000   0.3769
   6.000   1.5950   0.01069   0.00496  -0.2107  0.0013  0.1608  -2.6076   0.0000   0.3713
   6.500   1.6469   0.01103   0.00533  -0.2101  0.0012  0.1948  -2.7998   0.0000   0.3660
   7.000   1.6975   0.01142   0.00571  -0.2093  0.0012  0.2150  -2.9943   0.0000   0.3609
   7.500   1.7477   0.01181   0.00613  -0.2085  0.0012  0.2499  -3.1924   0.0000   0.3560
   8.000   1.7958   0.01226   0.00657  -0.2073  0.0012  0.2488  -3.3911   0.0000   0.3513
   8.500   1.8460   0.01266   0.00710  -0.2067  0.0012  0.3684  -3.5976   0.0000   0.3469
   9.000   1.8914   0.01318   0.00761  -0.2050  0.0012  0.3747  -3.8444   0.0000   0.3424
   9.500   1.9356   0.01373   0.00818  -0.2032  0.0011  0.4018  -4.1161   0.0000   0.3380
  10.000   1.9753   0.01429   0.00886  -0.2005  0.0011  0.4973  -4.6436   0.0000   0.3336
  10.500   2.0053   0.01498   0.00956  -0.1959  0.0011  0.4993  -5.1467   0.0000   0.3288
  11.000   2.0358   0.01580   0.01039  -0.1916  0.0011  0.5084  -5.6736   0.0000   0.3243
  11.500   2.0669   0.01672   0.01135  -0.1877  0.0011  0.5351  -6.2264   0.0000   0.3200
  12.000   2.0946   0.01781   0.01249  -0.1833  0.0010  0.5631  -6.7849   0.0000   0.3157
  12.500   2.1212   0.01908   0.01381  -0.1791  0.0010  0.5825  -7.3545   0.0000   0.3115
  13.000   2.1479   0.02052   0.01533  -0.1753  0.0010  0.6280  -7.9422   0.0000   0.3076
  13.500   2.1715   0.02220   0.01707  -0.1714  0.0009  0.6617  -8.5281   0.0000   0.3038
  14.000   2.1927   0.02414   0.01907  -0.1674  0.0009  0.6949  -9.1143   0.0000   0.3001
  14.500   2.2135   0.02638   0.02139  -0.1639  0.0009  0.7389  -9.7138   0.0000   0.2966
  15.000   2.2319   0.02896   0.02407  -0.1605  0.0009  0.7822  -10.3109   0.0000   0.2933
  15.500   2.2517   0.03182   0.02706  -0.1579  0.0008  0.8676  -10.9362   0.0000   0.2902
  16.000   2.2696   0.03505   0.03048  -0.1555  0.0008  1.0000  -11.5621   0.0000   0.2874
  16.500   2.2799   0.03874   0.03423  -0.1525  0.0008  1.0000  -12.1382   0.0000   0.2844
  17.000   2.2861   0.04293   0.03847  -0.1495  0.0008  1.0000  -12.6916   0.0000   0.2816
  17.500   2.2905   0.04770   0.04331  -0.1469  0.0007  1.0000  -13.2394   0.0000   0.2790
  18.000   2.2925   0.05300   0.04869  -0.1448  0.0007  1.0000  -13.7748   0.0000   0.2766
  18.500   2.2908   0.05898   0.05474  -0.1430  0.0006  1.0000  -14.2850   0.0000   0.2745


