XFLR5 v6.02 Beta

 Calculated polar for: WORTMANN FX 63-137

 1 1 Reynolds number fixed          Mach number fixed         

 xtrf =   1.000 (top)        1.000 (bottom)
 Mach =   0.000     Re =    45.750 e 6     Ncrit =   9.000

  alpha     CL        CD       CDp       CM    Top Xtr Bot Xtr   Cpmin    Chinge    XCp    
 ------- -------- --------- --------- -------- ------- ------- -------- --------- ---------
 -22.000  -1.1603   0.06214   0.05903  -0.1448  0.4730  0.0016  -26.1976   0.0000   0.0877
 -21.500  -1.2264   0.04731   0.04404  -0.1566  0.4831  0.0016  -27.1320   0.0000   0.0873
 -21.000  -1.2403   0.03981   0.03645  -0.1625  0.4673  0.0017  -27.0230   0.0000   0.0858
 -20.500  -1.2537   0.03278   0.02932  -0.1680  0.4660  0.0017  -26.8737   0.0000   0.0845
 -20.000  -1.2494   0.02803   0.02451  -0.1714  0.4659  0.0017  -26.3972   0.0000   0.0828
 -19.500  -1.2409   0.02369   0.02011  -0.1746  0.4657  0.0018  -25.8468   0.0000   0.0807
 -19.000  -1.2273   0.02034   0.01672  -0.1761  0.4656  0.0018  -25.1930   0.0000   0.0792
 -18.500  -1.1976   0.01765   0.01394  -0.1793  0.4374  0.0019  -24.3359   0.0000   0.0740
 -18.000  -1.1483   0.01535   0.01153  -0.1851  0.4096  0.0020  -23.2484   0.0000   0.0632
 -17.500  -1.0966   0.01410   0.01014  -0.1881  0.3462  0.0021  -22.1176   0.0000   0.0536
 -17.000  -1.0432   0.01317   0.00916  -0.1897  0.3390  0.0022  -20.9734   0.0000   0.0438
 -16.500  -0.9883   0.01237   0.00832  -0.1911  0.3381  0.0023  -19.8368   0.0000   0.0328
 -15.500  -0.8757   0.01100   0.00689  -0.1936  0.3376  0.0026  -17.6094   0.0000   0.0057
 -15.000  -0.8192   0.01046   0.00628  -0.1946  0.3067  0.0027  -16.5363   0.0000  -0.0106
 -14.500  -0.7627   0.01002   0.00574  -0.1954  0.2533  0.0029  -15.4914   0.0000  -0.0292
 -14.000  -0.7046   0.00956   0.00522  -0.1964  0.2394  0.0030  -14.4608   0.0000  -0.0518
 -13.500  -0.6460   0.00916   0.00478  -0.1974  0.2222  0.0032  -13.5363   0.0000  -0.0788
 -13.000  -0.5869   0.00876   0.00436  -0.1984  0.2214  0.0034  -12.6356   0.0000  -0.1118
 -12.500  -0.5284   0.00846   0.00398  -0.1992  0.1881  0.0036  -11.7647   0.0000  -0.1515
 -12.000  -0.4691   0.00817   0.00364  -0.2001  0.1699  0.0037  -10.9123   0.0000  -0.2022
 -11.500  -0.4094   0.00790   0.00335  -0.2010  0.1699  0.0039  -10.0831   0.0000  -0.2682
 -11.000  -0.3498   0.00766   0.00309  -0.2019  0.1695  0.0039  -9.2856   0.0000  -0.3568
 -10.500  -0.2900   0.00745   0.00286  -0.2027  0.1689  0.0040  -8.5165   0.0000  -0.4822
 -10.000  -0.2306   0.00730   0.00266  -0.2035  0.1509  0.0040  -7.7794   0.0000  -0.6710
  -9.500  -0.1710   0.00714   0.00246  -0.2042  0.1414  0.0041  -7.0702   0.0000  -0.9930
  -9.000  -0.1113   0.00701   0.00229  -0.2050  0.1313  0.0041  -6.3907   0.0000  -1.6612
  -8.500  -0.0514   0.00688   0.00214  -0.2057  0.1260  0.0041  -5.7373   0.0000  -3.8900
  -8.000   0.0084   0.00676   0.00200  -0.2065  0.1240  0.0042  -5.1133   0.0000  25.5376
  -7.500   0.0683   0.00666   0.00189  -0.2072  0.1236  0.0042  -4.5188   0.0000   3.3762
  -7.000   0.1281   0.00658   0.00178  -0.2079  0.1235  0.0043  -4.0487   0.0000   1.9185
  -6.500   0.1878   0.00650   0.00170  -0.2086  0.1232  0.0043  -3.6571   0.0000   1.3891
  -6.000   0.2474   0.00645   0.00163  -0.2093  0.1226  0.0043  -3.2809   0.0000   1.1155
  -5.500   0.3064   0.00646   0.00159  -0.2098  0.1033  0.0044  -2.9223   0.0000   0.9492
  -5.000   0.3656   0.00644   0.00155  -0.2104  0.1003  0.0044  -2.5768   0.0000   0.8363
  -4.500   0.4248   0.00644   0.00152  -0.2110  0.0975  0.0045  -2.2474   0.0000   0.7550
  -4.000   0.4838   0.00645   0.00152  -0.2115  0.0886  0.0045  -1.9339   0.0000   0.6936
  -3.500   0.5428   0.00646   0.00152  -0.2121  0.0850  0.0046  -1.6354   0.0000   0.6454
  -3.000   0.6017   0.00648   0.00152  -0.2126  0.0843  0.0049  -1.3527   0.0000   0.6068
  -2.500   0.6605   0.00652   0.00154  -0.2131  0.0840  0.0047  -1.0849   0.0000   0.5750
  -2.000   0.7191   0.00656   0.00158  -0.2136  0.0836  0.0055  -0.9602   0.0000   0.5484
  -1.500   0.7759   0.00675   0.00168  -0.2137  0.0538  0.0067  -1.0094   0.0000   0.5259
  -1.000   0.8339   0.00683   0.00174  -0.2141  0.0500  0.0078  -1.0617   0.0000   0.5063
  -0.500   0.8916   0.00693   0.00183  -0.2144  0.0472  0.0086  -1.1140   0.0000   0.4893
   0.000   0.9490   0.00705   0.00192  -0.2146  0.0445  0.0093  -1.1667   0.0000   0.4743
   0.500   1.0066   0.00715   0.00202  -0.2150  0.0421  0.0157  -1.2213   0.0000   0.4610
   1.000   1.0639   0.00726   0.00212  -0.2153  0.0448  0.0170  -1.2859   0.0000   0.4490
   1.500   1.1208   0.00739   0.00224  -0.2155  0.0435  0.0172  -1.3613   0.0000   0.4382
   2.000   1.1774   0.00753   0.00237  -0.2156  0.0417  0.0193  -1.4375   0.0000   0.4284
   2.500   1.2300   0.00802   0.00275  -0.2150  0.0022  0.0373  -1.5249   0.0000   0.4193
   3.500   1.3406   0.00845   0.00314  -0.2149  0.0013  0.0415  -1.7567   0.0000   0.4034
   4.000   1.3953   0.00869   0.00337  -0.2147  0.0015  0.0448  -1.8999   0.0000   0.3963
   4.500   1.4496   0.00894   0.00361  -0.2145  0.0013  0.0513  -2.0779   0.0000   0.3896
   5.000   1.5036   0.00920   0.00387  -0.2143  0.0013  0.0669  -2.2603   0.0000   0.3834
   5.500   1.5569   0.00949   0.00414  -0.2139  0.0013  0.0794  -2.4465   0.0000   0.3775
   6.000   1.6101   0.00978   0.00445  -0.2136  0.0012  0.1193  -2.6372   0.0000   0.3719
   6.500   1.6626   0.01009   0.00477  -0.2132  0.0012  0.1457  -2.8315   0.0000   0.3666
   7.000   1.7140   0.01044   0.00511  -0.2125  0.0012  0.1544  -3.0285   0.0000   0.3616
   7.500   1.7649   0.01080   0.00547  -0.2118  0.0012  0.1683  -3.2289   0.0000   0.3567
   8.000   1.8145   0.01120   0.00585  -0.2109  0.0012  0.1648  -3.4315   0.0000   0.3520
   8.500   1.8639   0.01160   0.00628  -0.2099  0.0012  0.2104  -3.6378   0.0000   0.3475
   9.000   1.9124   0.01203   0.00674  -0.2089  0.0012  0.2598  -3.9058   0.0000   0.3432
  10.000   2.0061   0.01297   0.00778  -0.2063  0.0011  0.3856  -4.8273   0.0000   0.3348
  10.500   2.0488   0.01352   0.00834  -0.2042  0.0011  0.3992  -5.4133   0.0000   0.3307
  11.000   2.0794   0.01414   0.00900  -0.1996  0.0011  0.4319  -5.9551   0.0000   0.3260
  12.000   2.1381   0.01573   0.01061  -0.1906  0.0010  0.4332  -7.0882   0.0000   0.3172
  12.500   2.1667   0.01671   0.01163  -0.1863  0.0010  0.4623  -7.6821   0.0000   0.3130
  13.000   2.1948   0.01784   0.01282  -0.1822  0.0010  0.5005  -8.2926   0.0000   0.3089
  13.500   2.2205   0.01916   0.01415  -0.1780  0.0009  0.5122  -8.9062   0.0000   0.3050
  14.000   2.2446   0.02069   0.01574  -0.1739  0.0009  0.5356  -9.5275   0.0000   0.3012
  14.500   2.2647   0.02254   0.01766  -0.1696  0.0009  0.5893  -10.1351   0.0000   0.2975
  15.000   2.2840   0.02469   0.01988  -0.1657  0.0008  0.6280  -10.7545   0.0000   0.2939
  15.500   2.3015   0.02714   0.02239  -0.1619  0.0007  0.6547  -11.3753   0.0000   0.2905
  16.000   2.2678   0.03414   0.02962  -0.1537  0.0014  0.6754  -11.5043   0.0000   0.2867
  16.500   2.2760   0.03801   0.03360  -0.1504  0.0017  0.6990  -12.0617   0.0000   0.2837
  17.000   2.2826   0.04214   0.03781  -0.1476  0.0021  0.7331  -12.6512   0.0000   0.2810
  17.500   2.2874   0.04700   0.04278  -0.1453  0.0024  0.7760  -13.2016   0.0000   0.2785
  18.000   2.2892   0.05258   0.04849  -0.1434  0.0029  0.8313  -13.7281   0.0000   0.2762
  19.000   2.2981   0.06440   0.06063  -0.1419  0.0036  1.0000  -14.8564   0.0000   0.2723
  19.500   2.2883   0.07173   0.06804  -0.1409  0.0038  1.0000  -15.2926   0.0000   0.2707


