XFLR5 v6.02 Beta

 Calculated polar for: WORTMANN FX 63-137

 1 1 Reynolds number fixed          Mach number fixed         

 xtrf =   1.000 (top)        1.000 (bottom)
 Mach =   0.000     Re =    32.000 e 6     Ncrit =   9.000

  alpha     CL        CD       CDp       CM    Top Xtr Bot Xtr   Cpmin    Chinge    XCp    
 ------- -------- --------- --------- -------- ------- ------- -------- --------- ---------
 -21.500  -1.1192   0.06173   0.05868  -0.1438  0.5595  0.0021  -25.0472   0.0000   0.0849
 -21.000  -1.1722   0.04845   0.04526  -0.1543  0.5630  0.0021  -25.7384   0.0000   0.0841
 -20.500  -1.1967   0.03940   0.03606  -0.1616  0.5473  0.0021  -25.8405   0.0000   0.0825
 -20.000  -1.2091   0.03243   0.02898  -0.1672  0.5319  0.0022  -25.6831   0.0000   0.0810
 -19.500  -1.2053   0.02753   0.02401  -0.1709  0.5309  0.0022  -25.2301   0.0000   0.0790
 -19.000  -1.1950   0.02331   0.01973  -0.1740  0.5307  0.0023  -24.6648   0.0000   0.0766
 -18.000  -1.1460   0.01724   0.01347  -0.1798  0.4941  0.0025  -23.1245   0.0000   0.0675
 -17.500  -1.0945   0.01499   0.01107  -0.1861  0.4355  0.0026  -22.0399   0.0000   0.0550
 -16.500  -0.9891   0.01295   0.00888  -0.1897  0.4005  0.0028  -19.8088   0.0000   0.0343
 -16.000  -0.9350   0.01220   0.00803  -0.1909  0.3667  0.0030  -18.7088   0.0000   0.0223
 -15.500  -0.8789   0.01151   0.00728  -0.1922  0.3601  0.0032  -17.6124   0.0000   0.0081
 -15.000  -0.8219   0.01090   0.00663  -0.1934  0.3507  0.0033  -16.5335   0.0000  -0.0083
 -14.500  -0.7642   0.01036   0.00605  -0.1945  0.3376  0.0035  -15.4753   0.0000  -0.0274
 -14.000  -0.7078   0.00999   0.00555  -0.1952  0.2783  0.0036  -14.4585   0.0000  -0.0488
 -13.500  -0.6498   0.00960   0.00510  -0.1961  0.2586  0.0036  -13.5205   0.0000  -0.0749
 -13.000  -0.5913   0.00925   0.00468  -0.1970  0.2425  0.0037  -12.6223   0.0000  -0.1068
 -12.500  -0.5323   0.00891   0.00431  -0.1979  0.2340  0.0038  -11.7473   0.0000  -0.1461
 -12.000  -0.4740   0.00867   0.00397  -0.1986  0.1871  0.0038  -10.9052   0.0000  -0.1944
 -11.500  -0.4143   0.00838   0.00365  -0.1996  0.1929  0.0039  -10.0752   0.0000  -0.2586
 -11.000  -0.3550   0.00814   0.00337  -0.2004  0.1800  0.0039  -9.2817   0.0000  -0.3437
 -10.500  -0.2953   0.00791   0.00311  -0.2013  0.1724  0.0040  -8.5138   0.0000  -0.4642
 -10.000  -0.2354   0.00770   0.00287  -0.2021  0.1699  0.0040  -7.7745   0.0000  -0.6465
  -9.500  -0.1755   0.00751   0.00266  -0.2030  0.1692  0.0041  -7.0656   0.0000  -0.9536
  -9.000  -0.1162   0.00739   0.00247  -0.2037  0.1447  0.0041  -6.3925   0.0000  -1.5684
  -8.500  -0.0566   0.00726   0.00230  -0.2044  0.1391  0.0041  -5.7417   0.0000  -3.4903
  -8.000   0.0032   0.00714   0.00216  -0.2052  0.1339  0.0042  -5.1197   0.0000  66.1133
  -7.500   0.0630   0.00703   0.00203  -0.2060  0.1290  0.0042  -4.5269   0.0000   3.6146
  -7.000   0.1228   0.00693   0.00191  -0.2067  0.1254  0.0043  -4.0511   0.0000   1.9790
  -6.500   0.1826   0.00686   0.00182  -0.2074  0.1239  0.0043  -3.6610   0.0000   1.4147
  -6.000   0.2423   0.00679   0.00174  -0.2081  0.1236  0.0043  -3.2861   0.0000   1.1289
  -5.500   0.3018   0.00674   0.00168  -0.2088  0.1232  0.0044  -2.9263   0.0000   0.9562
  -5.000   0.3613   0.00671   0.00163  -0.2094  0.1227  0.0044  -2.5798   0.0000   0.8405
  -4.500   0.4207   0.00668   0.00159  -0.2100  0.1221  0.0045  -2.2516   0.0000   0.7576
  -4.000   0.4789   0.00676   0.00160  -0.2104  0.1002  0.0045  -1.9414   0.0000   0.6957
  -3.500   0.5376   0.00680   0.00161  -0.2109  0.0907  0.0046  -1.6444   0.0000   0.6471
  -3.000   0.5964   0.00682   0.00162  -0.2114  0.0876  0.0056  -1.3620   0.0000   0.6080
  -2.500   0.6551   0.00686   0.00163  -0.2119  0.0843  0.0052  -1.0941   0.0000   0.5758
  -2.000   0.7137   0.00690   0.00166  -0.2124  0.0841  0.0065  -0.9568   0.0000   0.5490
  -1.500   0.7720   0.00695   0.00171  -0.2128  0.0833  0.0079  -1.0070   0.0000   0.5262
  -1.000   0.8294   0.00709   0.00182  -0.2131  0.0716  0.0092  -1.0587   0.0000   0.5066
  -0.500   0.8866   0.00724   0.00191  -0.2133  0.0566  0.0148  -1.1105   0.0000   0.4895
   0.000   0.9440   0.00735   0.00200  -0.2136  0.0509  0.0153  -1.1631   0.0000   0.4744
   0.500   1.0011   0.00749   0.00212  -0.2138  0.0482  0.0159  -1.2171   0.0000   0.4610
   1.000   1.0585   0.00758   0.00221  -0.2141  0.0504  0.0171  -1.2812   0.0000   0.4490
   1.500   1.1152   0.00772   0.00234  -0.2143  0.0494  0.0173  -1.3565   0.0000   0.4381
   2.000   1.1714   0.00790   0.00250  -0.2144  0.0465  0.0207  -1.4322   0.0000   0.4283
   2.500   1.2234   0.00843   0.00291  -0.2136  0.0030  0.0375  -1.5180   0.0000   0.4192
   3.000   1.2786   0.00865   0.00312  -0.2135  0.0023  0.0382  -1.6305   0.0000   0.4109
   3.500   1.3335   0.00889   0.00333  -0.2134  0.0018  0.0446  -1.7476   0.0000   0.4032
   4.000   1.3880   0.00914   0.00357  -0.2132  0.0022  0.0481  -1.8874   0.0000   0.3960
   4.500   1.4422   0.00940   0.00383  -0.2130  0.0016  0.0661  -2.0647   0.0000   0.3893
   5.000   1.4957   0.00968   0.00410  -0.2127  0.0013  0.0695  -2.2457   0.0000   0.3831
   6.500   1.6535   0.01063   0.00507  -0.2114  0.0012  0.1609  -2.8133   0.0000   0.3663
   7.000   1.7050   0.01098   0.00544  -0.2108  0.0012  0.1944  -3.0098   0.0000   0.3612
   7.500   1.7550   0.01137   0.00583  -0.2099  0.0012  0.2045  -3.2081   0.0000   0.3563
   8.000   1.8038   0.01180   0.00625  -0.2088  0.0012  0.1994  -3.4086   0.0000   0.3516
   9.000   1.9006   0.01267   0.00721  -0.2067  0.0012  0.3197  -3.8714   0.0000   0.3427
   9.500   1.9468   0.01317   0.00776  -0.2053  0.0011  0.3685  -4.1767   0.0000   0.3385
  10.000   1.9917   0.01369   0.00836  -0.2037  0.0011  0.4502  -4.7400   0.0000   0.3343
  10.500   2.0240   0.01431   0.00901  -0.1994  0.0011  0.4650  -5.2610   0.0000   0.3296
  11.000   2.0542   0.01504   0.00975  -0.1949  0.0011  0.4738  -5.7921   0.0000   0.3250
  11.500   2.0849   0.01588   0.01063  -0.1907  0.0011  0.4986  -6.3510   0.0000   0.3206
  12.000   2.1138   0.01686   0.01163  -0.1865  0.0010  0.5173  -6.9189   0.0000   0.3163
  12.500   2.1413   0.01799   0.01280  -0.1822  0.0010  0.5316  -7.4992   0.0000   0.3121
  13.000   2.1683   0.01929   0.01415  -0.1782  0.0010  0.5612  -8.0947   0.0000   0.3082
  13.500   2.1937   0.02079   0.01570  -0.1743  0.0009  0.5938  -8.6992   0.0000   0.3043
  14.000   2.2151   0.02257   0.01755  -0.1701  0.0009  0.6356  -9.2928   0.0000   0.3005
  14.500   2.2350   0.02469   0.01976  -0.1662  0.0009  0.6813  -9.8905   0.0000   0.2969
  15.000   2.2535   0.02707   0.02220  -0.1625  0.0009  0.7067  -10.4949   0.0000   0.2935
  15.500   2.2706   0.02981   0.02502  -0.1591  0.0008  0.7475  -11.1047   0.0000   0.2902
  18.500   2.2564   0.06339   0.05945  -0.1420  0.0018  1.0000  -13.9197   0.0000   0.2750
  19.000   2.2533   0.06990   0.06605  -0.1411  0.0021  1.0000  -14.4203   0.0000   0.2731
  19.500   2.2418   0.07763   0.07389  -0.1405  0.0023  1.0000  -14.8306   0.0000   0.2717


