XFLR5 v6.02 Beta

 Calculated polar for: WORTMANN FX 63-137

 1 1 Reynolds number fixed          Mach number fixed         

 xtrf =   1.000 (top)        1.000 (bottom)
 Mach =   0.000     Re =    76.500 e 6     Ncrit =   9.000

  alpha     CL        CD       CDp       CM    Top Xtr Bot Xtr   Cpmin    Chinge    XCp    
 ------- -------- --------- --------- -------- ------- ------- -------- --------- ---------
 -22.500  -0.8133   0.11965   0.11698  -0.1039  0.3032  0.0014  -19.0696   0.0000   0.0772
 -22.000  -0.7707   0.11961   0.11695  -0.1041  0.2959  0.0014  -17.9718   0.0000   0.0703
 -21.500  -0.7540   0.11505   0.11238  -0.1074  0.2913  0.0015  -17.4994   0.0000   0.0639
 -21.000  -0.7182   0.11384   0.11118  -0.1083  0.2854  0.0015  -16.5953   0.0000   0.0560
 -20.500  -0.6130   0.12478   0.12222  -0.1014  0.2786  0.0017  -14.0958   0.0000   0.0399
 -20.000  -0.6038   0.11854   0.11598  -0.1055  0.2783  0.0017  -13.8746   0.0000   0.0315
 -19.000  -1.2547   0.01640   0.01275  -0.1823  0.3740  0.0014  -25.7127   0.0000   0.0778
 -18.500  -1.2006   0.01435   0.01063  -0.1884  0.3667  0.0014  -24.5282   0.0000   0.0669
 -18.000  -1.1503   0.01346   0.00962  -0.1898  0.3008  0.0015  -23.3684   0.0000   0.0595
 -17.500  -1.0968   0.01266   0.00878  -0.1911  0.2927  0.0015  -22.1894   0.0000   0.0509
 -17.000  -1.0420   0.01196   0.00805  -0.1923  0.2855  0.0016  -21.0190   0.0000   0.0411
 -16.500  -0.9862   0.01132   0.00739  -0.1934  0.2788  0.0017  -19.8636   0.0000   0.0299
 -16.000  -0.9296   0.01075   0.00679  -0.1945  0.2783  0.0018  -18.7271   0.0000   0.0172
 -15.500  -0.8724   0.01023   0.00624  -0.1955  0.2780  0.0019  -17.6124   0.0000   0.0026
 -15.000  -0.8158   0.00981   0.00574  -0.1963  0.2298  0.0020  -16.5345   0.0000  -0.0137
 -14.500  -0.7577   0.00938   0.00528  -0.1972  0.2215  0.0021  -15.4703   0.0000  -0.0334
 -14.000  -0.6991   0.00897   0.00485  -0.1982  0.2210  0.0022  -14.4328   0.0000  -0.0567
 -13.500  -0.6410   0.00865   0.00445  -0.1990  0.1897  0.0023  -13.5119   0.0000  -0.0839
 -13.000  -0.5820   0.00831   0.00409  -0.1999  0.1799  0.0025  -12.6149   0.0000  -0.1174
 -12.500  -0.5227   0.00799   0.00374  -0.2008  0.1691  0.0026  -11.7419   0.0000  -0.1589
 -12.000  -0.4636   0.00772   0.00342  -0.2016  0.1418  0.0029  -10.8981   0.0000  -0.2108
 -11.500  -0.4037   0.00742   0.00310  -0.2026  0.1431  0.0032  -10.0749   0.0000  -0.2794
 -11.000  -0.3439   0.00718   0.00283  -0.2035  0.1394  0.0035  -9.2793   0.0000  -0.3717
 -10.500  -0.2840   0.00696   0.00259  -0.2043  0.1347  0.0038  -8.5090   0.0000  -0.5033
 -10.000  -0.2241   0.00677   0.00239  -0.2052  0.1299  0.0040  -7.7659   0.0000  -0.7053
  -9.500  -0.1643   0.00662   0.00222  -0.2060  0.1249  0.0040  -7.0538   0.0000  -1.0543
  -9.000  -0.1044   0.00649   0.00207  -0.2067  0.1236  0.0041  -6.3717   0.0000  -1.8036
  -8.500  -0.0445   0.00637   0.00193  -0.2074  0.1234  0.0041  -5.7175   0.0000  -4.5682
  -8.000   0.0153   0.00627   0.00182  -0.2082  0.1230  0.0042  -5.0931   0.0000  14.2944
  -7.500   0.0751   0.00618   0.00172  -0.2089  0.1228  0.0042  -4.4985   0.0000   3.1131
  -7.000   0.1344   0.00615   0.00163  -0.2095  0.1026  0.0043  -4.0413   0.0000   1.8514
  -6.500   0.1939   0.00610   0.00156  -0.2101  0.0999  0.0043  -3.6497   0.0000   1.3607
  -6.000   0.2534   0.00607   0.00150  -0.2107  0.0971  0.0043  -3.2732   0.0000   1.1007
  -5.500   0.3129   0.00604   0.00146  -0.2114  0.0946  0.0044  -2.9120   0.0000   0.9396
  -5.000   0.3723   0.00602   0.00143  -0.2120  0.0910  0.0044  -2.5662   0.0000   0.8300
  -4.500   0.4315   0.00601   0.00141  -0.2125  0.0845  0.0044  -2.2360   0.0000   0.7507
  -4.000   0.4907   0.00601   0.00139  -0.2131  0.0842  0.0045  -1.9212   0.0000   0.6905
  -3.500   0.5498   0.00602   0.00139  -0.2136  0.0841  0.0045  -1.6226   0.0000   0.6433
  -3.000   0.6088   0.00604   0.00140  -0.2142  0.0840  0.0046  -1.3397   0.0000   0.6052
  -2.500   0.6676   0.00607   0.00142  -0.2147  0.0838  0.0046  -1.0724   0.0000   0.5739
  -2.000   0.7245   0.00626   0.00151  -0.2148  0.0460  0.0047  -0.9634   0.0000   0.5478
  -1.500   0.7827   0.00633   0.00157  -0.2152  0.0432  0.0053  -1.0140   0.0000   0.5254
  -1.000   0.8409   0.00640   0.00163  -0.2156  0.0409  0.0062  -1.0664   0.0000   0.5060
  -0.500   0.8988   0.00648   0.00170  -0.2159  0.0388  0.0069  -1.1191   0.0000   0.4891
   0.000   0.9566   0.00657   0.00178  -0.2163  0.0382  0.0074  -1.1720   0.0000   0.4742
   0.500   1.0141   0.00668   0.00187  -0.2166  0.0381  0.0092  -1.2272   0.0000   0.4610
   1.000   1.0717   0.00677   0.00196  -0.2169  0.0383  0.0169  -1.2926   0.0000   0.4491
   1.500   1.1288   0.00689   0.00207  -0.2171  0.0382  0.0171  -1.3684   0.0000   0.4384
   2.000   1.1837   0.00718   0.00229  -0.2169  0.0197  0.0198  -1.4428   0.0000   0.4286
   2.500   1.2387   0.00747   0.00254  -0.2168  0.0014  0.0370  -1.5341   0.0000   0.4196
   3.000   1.2944   0.00766   0.00271  -0.2168  0.0013  0.0379  -1.6504   0.0000   0.4113
   3.500   1.3498   0.00787   0.00290  -0.2168  0.0013  0.0384  -1.7687   0.0000   0.4037
   4.000   1.4049   0.00809   0.00311  -0.2167  0.0013  0.0407  -1.9164   0.0000   0.3966
   4.500   1.4595   0.00832   0.00332  -0.2165  0.0013  0.0462  -2.0956   0.0000   0.3900
   5.500   1.5678   0.00883   0.00381  -0.2161  0.0013  0.0711  -2.4670   0.0000   0.3779
   6.000   1.6214   0.00909   0.00409  -0.2159  0.0012  0.1035  -2.6591   0.0000   0.3724
   6.500   1.6741   0.00939   0.00437  -0.2154  0.0012  0.1138  -2.8545   0.0000   0.3671
   7.000   1.7263   0.00971   0.00469  -0.2149  0.0012  0.1266  -3.0537   0.0000   0.3620
   7.500   1.7780   0.01004   0.00501  -0.2144  0.0012  0.1459  -3.2565   0.0000   0.3572
   8.000   1.8287   0.01040   0.00536  -0.2136  0.0012  0.1457  -3.4619   0.0000   0.3526
   8.500   1.8786   0.01078   0.00572  -0.2128  0.0012  0.1498  -3.6700   0.0000   0.3481
   9.000   1.9281   0.01116   0.00614  -0.2119  0.0012  0.2040  -3.9512   0.0000   0.3438
  10.000   2.0234   0.01204   0.00703  -0.2095  0.0012  0.2674  -4.9328   0.0000   0.3355
  10.500   2.0693   0.01252   0.00755  -0.2080  0.0011  0.3182  -5.5434   0.0000   0.3315
  11.000   2.1121   0.01306   0.00808  -0.2059  0.0011  0.3281  -6.1658   0.0000   0.3274
  11.500   2.1436   0.01365   0.00869  -0.2015  0.0011  0.3353  -6.7439   0.0000   0.3230
  12.000   2.1723   0.01435   0.00939  -0.1967  0.0010  0.3362  -7.3262   0.0000   0.3185
  13.000   2.2289   0.01613   0.01123  -0.1877  0.0009  0.3751  -8.5485   0.0000   0.3101
  13.500   2.2249   0.01893   0.01421  -0.1784  0.0013  0.4337  -8.9015   0.0000   0.3050
  14.000   2.2485   0.02043   0.01576  -0.1741  0.0019  0.4492  -9.5265   0.0000   0.3011
  14.500   2.2663   0.02231   0.01768  -0.1693  0.0020  0.4600  -10.1281   0.0000   0.2973
  15.000   2.2836   0.02451   0.01995  -0.1651  0.0025  0.4918  -10.7331   0.0000   0.2937
  15.500   2.2982   0.02714   0.02263  -0.1609  0.0030  0.5174  -11.3253   0.0000   0.2902
  16.000   2.3107   0.03015   0.02571  -0.1570  0.0034  0.5345  -11.9121   0.0000   0.2869
  16.500   2.3215   0.03352   0.02915  -0.1535  0.0038  0.5637  -12.4975   0.0000   0.2838
  17.000   2.3294   0.03735   0.03305  -0.1502  0.0041  0.5907  -13.0689   0.0000   0.2808
  17.500   2.3341   0.04156   0.03735  -0.1471  0.0045  0.6249  -13.6209   0.0000   0.2780
  18.000   2.3359   0.04645   0.04232  -0.1443  0.0046  0.6357  -14.1578   0.0000   0.2754
  19.000   2.3445   0.05652   0.05256  -0.1404  0.0047  0.6908  -15.3104   0.0000   0.2707
  19.500   2.3395   0.06303   0.05916  -0.1390  0.0047  0.7193  -15.8063   0.0000   0.2687
  20.000   2.3305   0.07025   0.06650  -0.1382  0.0047  0.7520  -16.2673   0.0000   0.2670
  20.500   2.3179   0.07810   0.07446  -0.1379  0.0047  0.7852  -16.6928   0.0000   0.2657
  21.000   2.2999   0.08649   0.08297  -0.1379  0.0047  0.8111  -17.0629   0.0000   0.2645
  21.500   2.2800   0.09580   0.09241  -0.1389  0.0047  0.8299  -17.4053   0.0000   0.2638
  22.000   2.2792   0.10222   0.09890  -0.1396  0.0047  0.8498  -17.9580   0.0000   0.2625


