XFLR5 v6.02 Beta

 Calculated polar for: WORTMANN FX 63-137

 1 1 Reynolds number fixed          Mach number fixed         

 xtrf =   1.000 (top)        1.000 (bottom)
 Mach =   0.000     Re =    72.500 e 6     Ncrit =   9.000

  alpha     CL        CD       CDp       CM    Top Xtr Bot Xtr   Cpmin    Chinge    XCp    
 ------- -------- --------- --------- -------- ------- ------- -------- --------- ---------
 -22.500  -1.2632   0.05434   0.05116  -0.1526  0.4017  0.0014  -28.5884   0.0000   0.0918
 -22.000  -1.2940   0.04477   0.04149  -0.1600  0.4016  0.0014  -28.8039   0.0000   0.0908
 -21.500  -1.3152   0.03651   0.03314  -0.1666  0.4014  0.0014  -28.8046   0.0000   0.0897
 -21.000  -1.3247   0.03021   0.02676  -0.1715  0.4015  0.0014  -28.5587   0.0000   0.0886
 -20.500  -1.3161   0.02607   0.02257  -0.1743  0.4013  0.0014  -27.9826   0.0000   0.0870
 -20.000  -1.3012   0.02254   0.01899  -0.1766  0.4012  0.0014  -27.2993   0.0000   0.0850
 -19.500  -1.2901   0.01939   0.01580  -0.1774  0.4011  0.0014  -26.6516   0.0000   0.0846
 -19.000  -1.2528   0.01681   0.01317  -0.1814  0.4010  0.0014  -25.6683   0.0000   0.0782
 -18.500  -1.2004   0.01459   0.01087  -0.1878  0.3746  0.0015  -24.5140   0.0000   0.0674
 -18.000  -1.1500   0.01362   0.00978  -0.1895  0.3062  0.0015  -23.3571   0.0000   0.0598
 -17.500  -1.0969   0.01281   0.00891  -0.1908  0.2973  0.0016  -22.1835   0.0000   0.0512
 -17.000  -1.0422   0.01209   0.00816  -0.1920  0.2900  0.0017  -21.0161   0.0000   0.0414
 -16.500  -0.9865   0.01144   0.00749  -0.1931  0.2829  0.0017  -19.8626   0.0000   0.0303
 -16.000  -0.9300   0.01086   0.00688  -0.1942  0.2786  0.0018  -18.7274   0.0000   0.0176
 -15.500  -0.8729   0.01032   0.00632  -0.1953  0.2783  0.0019  -17.6137   0.0000   0.0030
 -15.000  -0.8163   0.00990   0.00580  -0.1960  0.2374  0.0021  -16.5359   0.0000  -0.0133
 -14.500  -0.7582   0.00945   0.00533  -0.1970  0.2217  0.0022  -15.4729   0.0000  -0.0329
 -14.000  -0.6997   0.00904   0.00489  -0.1980  0.2210  0.0023  -14.4358   0.0000  -0.0562
 -13.500  -0.6415   0.00870   0.00449  -0.1988  0.1923  0.0024  -13.5148   0.0000  -0.0834
 -13.000  -0.5825   0.00836   0.00412  -0.1997  0.1844  0.0026  -12.6183   0.0000  -0.1168
 -12.000  -0.4641   0.00776   0.00344  -0.2015  0.1437  0.0029  -10.9012   0.0000  -0.2100
 -11.500  -0.4042   0.00746   0.00312  -0.2025  0.1449  0.0033  -10.0774   0.0000  -0.2784
 -11.000  -0.3445   0.00722   0.00285  -0.2033  0.1412  0.0036  -9.2811   0.0000  -0.3703
 -10.500  -0.2846   0.00700   0.00261  -0.2042  0.1364  0.0039  -8.5101   0.0000  -0.5012
 -10.000  -0.2248   0.00683   0.00241  -0.2050  0.1315  0.0040  -7.7677   0.0000  -0.7017
  -9.500  -0.1649   0.00668   0.00224  -0.2058  0.1264  0.0040  -7.0558   0.0000  -1.0479
  -9.000  -0.1051   0.00654   0.00209  -0.2065  0.1237  0.0041  -6.3739   0.0000  -1.7887
  -8.500  -0.0452   0.00642   0.00195  -0.2073  0.1235  0.0041  -5.7198   0.0000  -4.4917
  -8.000   0.0146   0.00632   0.00183  -0.2080  0.1231  0.0042  -5.0954   0.0000  14.9360
  -7.500   0.0744   0.00623   0.00173  -0.2087  0.1228  0.0042  -4.5008   0.0000   3.1373
  -7.000   0.1337   0.00619   0.00166  -0.2093  0.1046  0.0043  -4.0423   0.0000   1.8580
  -6.500   0.1933   0.00615   0.00158  -0.2100  0.1008  0.0043  -3.6507   0.0000   1.3636
  -6.000   0.2527   0.00611   0.00152  -0.2106  0.0980  0.0043  -3.2743   0.0000   1.1023
  -5.500   0.3122   0.00608   0.00147  -0.2112  0.0954  0.0044  -2.9132   0.0000   0.9406
  -5.000   0.3716   0.00606   0.00144  -0.2118  0.0924  0.0044  -2.5675   0.0000   0.8307
  -4.000   0.4900   0.00605   0.00141  -0.2129  0.0842  0.0045  -1.9226   0.0000   0.6908
  -3.500   0.5491   0.00606   0.00141  -0.2135  0.0841  0.0045  -1.6239   0.0000   0.6435
  -3.000   0.6081   0.00608   0.00142  -0.2140  0.0840  0.0046  -1.3410   0.0000   0.6054
  -2.500   0.6669   0.00611   0.00144  -0.2145  0.0838  0.0046  -1.0736   0.0000   0.5740
  -2.000   0.7238   0.00630   0.00153  -0.2146  0.0470  0.0047  -0.9629   0.0000   0.5479
  -1.500   0.7820   0.00637   0.00158  -0.2150  0.0441  0.0054  -1.0135   0.0000   0.5254
  -1.000   0.8401   0.00645   0.00164  -0.2154  0.0417  0.0063  -1.0659   0.0000   0.5060
  -0.500   0.8981   0.00653   0.00171  -0.2158  0.0395  0.0070  -1.1186   0.0000   0.4891
   0.000   0.9558   0.00662   0.00179  -0.2161  0.0382  0.0075  -1.1715   0.0000   0.4742
   0.500   1.0134   0.00672   0.00188  -0.2164  0.0381  0.0094  -1.2266   0.0000   0.4610
   1.000   1.0709   0.00682   0.00198  -0.2167  0.0388  0.0169  -1.2920   0.0000   0.4491
   1.500   1.1280   0.00694   0.00209  -0.2170  0.0382  0.0171  -1.3677   0.0000   0.4383
   2.000   1.1831   0.00722   0.00229  -0.2168  0.0231  0.0201  -1.4423   0.0000   0.4285
   2.500   1.2378   0.00752   0.00256  -0.2166  0.0014  0.0370  -1.5331   0.0000   0.4195
   3.000   1.2935   0.00772   0.00274  -0.2166  0.0013  0.0379  -1.6493   0.0000   0.4113
   3.500   1.3489   0.00793   0.00293  -0.2166  0.0013  0.0386  -1.7675   0.0000   0.4037
   4.000   1.4039   0.00815   0.00313  -0.2165  0.0013  0.0411  -1.9148   0.0000   0.3966
   4.500   1.4585   0.00838   0.00335  -0.2163  0.0013  0.0467  -2.0938   0.0000   0.3899
   5.500   1.5667   0.00889   0.00384  -0.2159  0.0013  0.0719  -2.4649   0.0000   0.3779
   6.000   1.6202   0.00916   0.00413  -0.2156  0.0012  0.1038  -2.6569   0.0000   0.3723
   6.500   1.6729   0.00946   0.00441  -0.2152  0.0012  0.1155  -2.8521   0.0000   0.3670
   7.500   1.7767   0.01011   0.00505  -0.2141  0.0012  0.1461  -3.2537   0.0000   0.3572
   8.000   1.8273   0.01048   0.00540  -0.2134  0.0012  0.1458  -3.4588   0.0000   0.3525
   8.500   1.8770   0.01086   0.00578  -0.2125  0.0012  0.1532  -3.6667   0.0000   0.3480
   9.000   1.9265   0.01125   0.00619  -0.2116  0.0012  0.2083  -3.9466   0.0000   0.3437
  10.000   2.0218   0.01213   0.00711  -0.2092  0.0012  0.2785  -4.9230   0.0000   0.3354
  10.500   2.0672   0.01262   0.00762  -0.2076  0.0011  0.3258  -5.5304   0.0000   0.3314
  11.000   2.1099   0.01316   0.00817  -0.2055  0.0011  0.3356  -6.1514   0.0000   0.3274
  13.000   2.2254   0.01629   0.01137  -0.1871  0.0009  0.3907  -8.5219   0.0000   0.3099
  14.000   2.2446   0.02068   0.01600  -0.1736  0.0017  0.4593  -9.4800   0.0000   0.3010
  15.000   2.2792   0.02483   0.02026  -0.1646  0.0023  0.4989  -10.6975   0.0000   0.2936
  15.500   2.2947   0.02744   0.02293  -0.1606  0.0028  0.5305  -11.2967   0.0000   0.2902
  16.000   2.3073   0.03046   0.02601  -0.1567  0.0032  0.5536  -11.8838   0.0000   0.2869
  16.500   2.3176   0.03387   0.02949  -0.1532  0.0036  0.5732  -12.4637   0.0000   0.2838
  17.000   2.3254   0.03774   0.03344  -0.1499  0.0039  0.6078  -13.0338   0.0000   0.2808
  17.500   2.3291   0.04206   0.03784  -0.1468  0.0044  0.6291  -13.5759   0.0000   0.2780
  18.000   2.3314   0.04698   0.04285  -0.1441  0.0046  0.6526  -14.1150   0.0000   0.2755
  18.500   2.3321   0.05244   0.04840  -0.1420  0.0046  0.6845  -14.6501   0.0000   0.2731
  19.000   2.3283   0.05862   0.05467  -0.1402  0.0046  0.7066  -15.1498   0.0000   0.2710
  19.500   2.3354   0.06367   0.05981  -0.1391  0.0047  0.7474  -15.7645   0.0000   0.2688
  20.000   2.3264   0.07094   0.06720  -0.1383  0.0047  0.7779  -16.2235   0.0000   0.2672
  20.500   2.3135   0.07878   0.07515  -0.1380  0.0047  0.8102  -16.6454   0.0000   0.2658
  21.000   2.2956   0.08729   0.08378  -0.1382  0.0047  0.8331  -17.0144   0.0000   0.2648


