XFLR5 v6.02 Beta

 Calculated polar for: WORTMANN FX 63-137

 1 1 Reynolds number fixed          Mach number fixed         

 xtrf =   1.000 (top)        1.000 (bottom)
 Mach =   0.000     Re =    12.500 e 6     Ncrit =   9.000

  alpha     CL        CD       CDp       CM    Top Xtr Bot Xtr   Cpmin    Chinge    XCp    
 ------- -------- --------- --------- -------- ------- ------- -------- --------- ---------
 -19.500  -0.9939   0.05441   0.05167  -0.1447  0.7713  0.0034  -21.2732   0.0000   0.0715
 -19.000  -1.0300   0.04265   0.03967  -0.1549  0.7479  0.0034  -21.6629   0.0000   0.0688
 -18.500  -1.0434   0.03470   0.03154  -0.1620  0.7302  0.0034  -21.5899   0.0000   0.0657
 -18.000  -1.0418   0.02888   0.02560  -0.1672  0.7194  0.0034  -21.2388   0.0000   0.0620
 -17.500  -1.0270   0.02476   0.02139  -0.1706  0.7137  0.0035  -20.6633   0.0000   0.0576
 -17.000  -1.0124   0.02135   0.01784  -0.1726  0.6856  0.0035  -20.0680   0.0000   0.0545
 -16.500  -0.9755   0.01856   0.01492  -0.1771  0.6601  0.0035  -19.2136   0.0000   0.0443
 -16.000  -0.9270   0.01638   0.01252  -0.1825  0.6101  0.0036  -18.2349   0.0000   0.0296
 -15.000  -0.4963   0.06636   0.06352  -0.1327  0.4014  0.0039  -10.6491   0.0000  -0.0519
 -14.500  -0.4440   0.06771   0.06491  -0.1318  0.3997  0.0039  -9.6510   0.0000  -0.0824
 -14.000  -0.4000   0.06822   0.06535  -0.1313  0.3615  0.0040  -8.8002   0.0000  -0.1150
 -13.500  -0.3351   0.07191   0.06902  -0.1293  0.3494  0.0041  -7.6196   0.0000  -0.1758
 -13.000  -0.3228   0.06624   0.06338  -0.1320  0.3412  0.0041  -7.3922   0.0000  -0.1988
 -12.500  -0.2612   0.07008   0.06708  -0.1296  0.2818  0.0042  -6.3049   0.0000  -0.2911
 -11.500  -0.4273   0.01012   0.00519  -0.1951  0.3426  0.0041  -9.5395   0.0000  -0.2327
 -11.000  -0.3676   0.00967   0.00469  -0.1963  0.3381  0.0042  -8.6910   0.0000  -0.3121
 -10.500  -0.3100   0.00941   0.00427  -0.1971  0.2905  0.0043  -7.9102   0.0000  -0.4167
 -10.000  -0.2513   0.00914   0.00388  -0.1980  0.2480  0.0043  -7.1762   0.0000  -0.5734
  -4.500   0.4055   0.00766   0.00185  -0.2066  0.1386  0.0045  -2.2063   0.0000   0.7681
  -4.000   0.4646   0.00766   0.00183  -0.2072  0.1328  0.0045  -1.9429   0.0000   0.7024
  -3.500   0.5236   0.00766   0.00182  -0.2077  0.1271  0.0053  -1.6620   0.0000   0.6517
  -3.000   0.5824   0.00768   0.00183  -0.2083  0.1228  0.0089  -1.3824   0.0000   0.6112
  -2.000   0.6982   0.00787   0.00192  -0.2090  0.0979  0.0139  -0.9471   0.0000   0.5508
  -1.500   0.7562   0.00795   0.00198  -0.2094  0.0946  0.0151  -0.9961   0.0000   0.5274
  -1.000   0.8140   0.00804   0.00205  -0.2097  0.0881  0.0155  -1.0480   0.0000   0.5074
  -0.500   0.8716   0.00814   0.00213  -0.2101  0.0844  0.0158  -1.1002   0.0000   0.4899
   0.500   0.9862   0.00836   0.00234  -0.2106  0.0830  0.0164  -1.2056   0.0000   0.4610
   1.000   1.0434   0.00846   0.00244  -0.2109  0.0836  0.0172  -1.2682   0.0000   0.4488
   1.500   1.1000   0.00860   0.00258  -0.2111  0.0831  0.0195  -1.3427   0.0000   0.4379
   2.000   1.1563   0.00876   0.00274  -0.2112  0.0820  0.0262  -1.4182   0.0000   0.4279
   2.500   1.2075   0.00933   0.00316  -0.2103  0.0380  0.0382  -1.5020   0.0000   0.4188
   3.000   1.2626   0.00955   0.00337  -0.2103  0.0369  0.0478  -1.6099   0.0000   0.4104
   3.500   1.3126   0.01018   0.00390  -0.2092  0.0042  0.0658  -1.7206   0.0000   0.4025
   4.000   1.3687   0.01027   0.00400  -0.2094  0.0170  0.0671  -1.8464   0.0000   0.3954
   4.500   1.4193   0.01078   0.00447  -0.2085  0.0040  0.0791  -2.0243   0.0000   0.3885
   5.000   1.4718   0.01112   0.00483  -0.2080  0.0031  0.1035  -2.2021   0.0000   0.3822
   5.500   1.5241   0.01147   0.00520  -0.2075  0.0024  0.1459  -2.3845   0.0000   0.3762
   6.000   1.5776   0.01176   0.00563  -0.2074  0.0014  0.2626  -2.5730   0.0000   0.3708
   6.500   1.6289   0.01214   0.00606  -0.2068  0.0013  0.3115  -2.7629   0.0000   0.3654
   7.000   1.6794   0.01254   0.00652  -0.2061  0.0013  0.3687  -2.9560   0.0000   0.3604
   7.500   1.7296   0.01296   0.00705  -0.2055  0.0012  0.4569  -3.1531   0.0000   0.3555
   8.000   1.7746   0.01351   0.00755  -0.2036  0.0012  0.4293  -3.3447   0.0000   0.3506
   8.500   1.8209   0.01404   0.00815  -0.2022  0.0012  0.4938  -3.5424   0.0000   0.3460
   9.000   1.8610   0.01465   0.00877  -0.1995  0.0012  0.4998  -3.7573   0.0000   0.3413
   9.500   1.8929   0.01533   0.00949  -0.1952  0.0012  0.5260  -3.9933   0.0000   0.3363
  10.000   1.9259   0.01611   0.01033  -0.1913  0.0011  0.5608  -4.3549   0.0000   0.3316
  10.500   1.9578   0.01702   0.01129  -0.1875  0.0011  0.5870  -4.8522   0.0000   0.3270
  11.000   1.9882   0.01806   0.01240  -0.1836  0.0011  0.6287  -5.3625   0.0000   0.3226
  11.500   2.0166   0.01929   0.01370  -0.1796  0.0011  0.6606  -5.8803   0.0000   0.3183
  12.000   2.0431   0.02073   0.01520  -0.1757  0.0011  0.6941  -6.4059   0.0000   0.3142
  12.500   2.0681   0.02236   0.01691  -0.1718  0.0010  0.7208  -6.9635   0.0000   0.3102
  13.000   2.0908   0.02426   0.01891  -0.1680  0.0010  0.7697  -7.5106   0.0000   0.3064
  13.500   2.1139   0.02645   0.02123  -0.1648  0.0009  0.8423  -8.0760   0.0000   0.3029
  14.000   2.1362   0.02886   0.02387  -0.1619  0.0009  1.0000  -8.6531   0.0000   0.2996
  14.500   2.1525   0.03172   0.02678  -0.1585  0.0009  1.0000  -9.2030   0.0000   0.2962
  15.000   2.1668   0.03494   0.03005  -0.1553  0.0009  1.0000  -9.7506   0.0000   0.2930
  15.500   2.1785   0.03856   0.03374  -0.1522  0.0008  1.0000  -10.2906   0.0000   0.2900
  16.000   2.1862   0.04262   0.03787  -0.1493  0.0008  1.0000  -10.8131   0.0000   0.2871
  16.500   2.1921   0.04723   0.04255  -0.1468  0.0008  1.0000  -11.3310   0.0000   0.2845
  17.000   2.1967   0.05226   0.04767  -0.1446  0.0008  1.0000  -11.8471   0.0000   0.2820
  17.500   2.1990   0.05779   0.05327  -0.1428  0.0008  1.0000  -12.3513   0.0000   0.2798
  18.000   2.2051   0.06290   0.05846  -0.1414  0.0007  1.0000  -12.8999   0.0000   0.2776
  18.500   2.2013   0.06949   0.06514  -0.1403  0.0007  1.0000  -13.3669   0.0000   0.2758
  19.000   2.1944   0.07661   0.07237  -0.1397  0.0007  1.0000  -13.8067   0.0000   0.2742
  19.500   2.1840   0.08402   0.07989  -0.1394  0.0007  1.0000  -14.2152   0.0000   0.2729
  20.000   2.1713   0.09214   0.08813  -0.1398  0.0007  1.0000  -14.6000   0.0000   0.2719


