XFLR5 v6.02 Beta

 Calculated polar for: WORTMANN FX 63-137

 1 1 Reynolds number fixed          Mach number fixed         

 xtrf =   1.000 (top)        1.000 (bottom)
 Mach =   0.000     Re =    77.000 e 6     Ncrit =   9.000

  alpha     CL        CD       CDp       CM    Top Xtr Bot Xtr   Cpmin    Chinge    XCp    
 ------- -------- --------- --------- -------- ------- ------- -------- --------- ---------
 -22.000  -1.3159   0.04198   0.03868  -0.1626  0.4013  0.0014  -29.2198   0.0000   0.0913
 -21.000  -1.3311   0.02955   0.02610  -0.1721  0.4013  0.0014  -28.6738   0.0000   0.0888
 -20.500  -1.3215   0.02549   0.02200  -0.1748  0.4012  0.0014  -28.0786   0.0000   0.0872
 -20.000  -1.3089   0.02167   0.01813  -0.1775  0.4011  0.0014  -27.4330   0.0000   0.0853
 -19.500  -1.2936   0.01886   0.01528  -0.1782  0.4010  0.0014  -26.7188   0.0000   0.0844
 -19.000  -1.2548   0.01636   0.01271  -0.1824  0.3719  0.0014  -25.7158   0.0000   0.0777
 -18.500  -1.2006   0.01432   0.01060  -0.1885  0.3660  0.0014  -24.5303   0.0000   0.0669
 -18.000  -1.1503   0.01344   0.00960  -0.1898  0.3003  0.0015  -23.3696   0.0000   0.0595
 -17.500  -1.0968   0.01264   0.00876  -0.1911  0.2922  0.0015  -22.1901   0.0000   0.0508
 -17.000  -1.0419   0.01194   0.00803  -0.1923  0.2849  0.0016  -21.0194   0.0000   0.0410
 -16.500  -0.9861   0.01131   0.00737  -0.1934  0.2787  0.0017  -19.8637   0.0000   0.0299
 -16.000  -0.9295   0.01074   0.00678  -0.1945  0.2782  0.0018  -18.7271   0.0000   0.0172
 -15.500  -0.8723   0.01022   0.00623  -0.1955  0.2779  0.0019  -17.6123   0.0000   0.0025
 -15.000  -0.8157   0.00980   0.00573  -0.1963  0.2290  0.0020  -16.5343   0.0000  -0.0138
 -14.500  -0.7576   0.00937   0.00527  -0.1972  0.2215  0.0021  -15.4700   0.0000  -0.0335
 -14.000  -0.6990   0.00896   0.00484  -0.1982  0.2210  0.0022  -14.4324   0.0000  -0.0568
 -13.500  -0.6409   0.00864   0.00445  -0.1990  0.1894  0.0023  -13.5116   0.0000  -0.0840
 -13.000  -0.5819   0.00830   0.00408  -0.1999  0.1793  0.0025  -12.6145   0.0000  -0.1175
 -12.000  -0.4635   0.00772   0.00342  -0.2016  0.1415  0.0028  -10.8977   0.0000  -0.2109
 -11.500  -0.4037   0.00742   0.00310  -0.2026  0.1428  0.0032  -10.0746   0.0000  -0.2795
 -11.000  -0.3439   0.00717   0.00283  -0.2035  0.1392  0.0035  -9.2790   0.0000  -0.3719
 -10.500  -0.2840   0.00695   0.00259  -0.2044  0.1345  0.0038  -8.5089   0.0000  -0.5036
 -10.000  -0.2240   0.00677   0.00238  -0.2052  0.1297  0.0040  -7.7657   0.0000  -0.7058
  -9.500  -0.1642   0.00662   0.00222  -0.2060  0.1247  0.0040  -7.0535   0.0000  -1.0551
  -9.000  -0.1043   0.00649   0.00206  -0.2067  0.1236  0.0041  -6.3714   0.0000  -1.8054
  -8.500  -0.0445   0.00637   0.00193  -0.2075  0.1234  0.0041  -5.7172   0.0000  -4.5776
  -8.000   0.0154   0.00627   0.00181  -0.2082  0.1230  0.0042  -5.0929   0.0000  14.2211
  -7.500   0.0752   0.00618   0.00171  -0.2089  0.1228  0.0042  -4.4982   0.0000   3.1102
  -7.000   0.1345   0.00615   0.00163  -0.2095  0.1025  0.0043  -4.0412   0.0000   1.8506
  -6.500   0.1940   0.00610   0.00156  -0.2101  0.0998  0.0043  -3.6495   0.0000   1.3604
  -6.000   0.2535   0.00606   0.00150  -0.2108  0.0970  0.0043  -3.2731   0.0000   1.1005
  -5.500   0.3129   0.00603   0.00146  -0.2114  0.0945  0.0044  -2.9118   0.0000   0.9395
  -5.000   0.3723   0.00601   0.00143  -0.2120  0.0909  0.0044  -2.5661   0.0000   0.8300
  -4.500   0.4316   0.00600   0.00140  -0.2126  0.0844  0.0044  -2.2359   0.0000   0.7506
  -4.000   0.4908   0.00600   0.00139  -0.2131  0.0842  0.0045  -1.9211   0.0000   0.6905
  -3.500   0.5499   0.00601   0.00139  -0.2137  0.0841  0.0045  -1.6224   0.0000   0.6433
  -3.000   0.6089   0.00603   0.00140  -0.2142  0.0840  0.0046  -1.3396   0.0000   0.6052
  -2.500   0.6677   0.00606   0.00142  -0.2147  0.0838  0.0046  -1.0722   0.0000   0.5739
  -2.000   0.7246   0.00625   0.00151  -0.2148  0.0459  0.0047  -0.9634   0.0000   0.5478
  -1.500   0.7828   0.00632   0.00157  -0.2152  0.0431  0.0053  -1.0141   0.0000   0.5254
  -1.000   0.8410   0.00639   0.00163  -0.2156  0.0408  0.0061  -1.0665   0.0000   0.5060
  -0.500   0.8989   0.00648   0.00170  -0.2159  0.0387  0.0068  -1.1191   0.0000   0.4891
   0.000   0.9567   0.00657   0.00177  -0.2163  0.0382  0.0073  -1.1721   0.0000   0.4742
   0.500   1.0142   0.00667   0.00186  -0.2166  0.0381  0.0092  -1.2273   0.0000   0.4610
   1.000   1.0718   0.00676   0.00196  -0.2169  0.0383  0.0169  -1.2927   0.0000   0.4491
   1.500   1.1289   0.00688   0.00207  -0.2172  0.0382  0.0171  -1.3685   0.0000   0.4384
   2.000   1.1838   0.00718   0.00229  -0.2170  0.0193  0.0198  -1.4429   0.0000   0.4286
   2.500   1.2388   0.00746   0.00254  -0.2168  0.0014  0.0370  -1.5342   0.0000   0.4196
   3.000   1.2945   0.00765   0.00271  -0.2168  0.0013  0.0379  -1.6505   0.0000   0.4113
   3.500   1.3500   0.00786   0.00290  -0.2168  0.0013  0.0384  -1.7688   0.0000   0.4037
   4.000   1.4050   0.00808   0.00310  -0.2167  0.0013  0.0406  -1.9166   0.0000   0.3966
   4.500   1.4597   0.00831   0.00332  -0.2166  0.0013  0.0461  -2.0958   0.0000   0.3900
   5.000   1.5141   0.00855   0.00356  -0.2164  0.0013  0.0663  -2.2796   0.0000   0.3838
   5.500   1.5679   0.00882   0.00381  -0.2161  0.0013  0.0710  -2.4672   0.0000   0.3779
   6.000   1.6215   0.00909   0.00409  -0.2159  0.0012  0.1035  -2.6593   0.0000   0.3724
   6.500   1.6742   0.00939   0.00437  -0.2155  0.0012  0.1136  -2.8548   0.0000   0.3671
   7.000   1.7265   0.00970   0.00468  -0.2150  0.0012  0.1253  -3.0540   0.0000   0.3621
   7.500   1.7782   0.01003   0.00500  -0.2144  0.0012  0.1458  -3.2568   0.0000   0.3572
   8.000   1.8289   0.01039   0.00535  -0.2137  0.0012  0.1457  -3.4622   0.0000   0.3526
   8.500   1.8787   0.01077   0.00572  -0.2128  0.0012  0.1494  -3.6704   0.0000   0.3481
   9.000   1.9283   0.01115   0.00613  -0.2119  0.0012  0.2034  -3.9517   0.0000   0.3438
  10.000   2.0236   0.01203   0.00702  -0.2095  0.0012  0.2660  -4.9341   0.0000   0.3355
  10.500   2.0695   0.01251   0.00754  -0.2080  0.0011  0.3172  -5.5450   0.0000   0.3315
  11.000   2.1123   0.01305   0.00807  -0.2060  0.0011  0.3272  -6.1676   0.0000   0.3274
  11.500   2.1441   0.01364   0.00868  -0.2016  0.0011  0.3344  -6.7471   0.0000   0.3230
  12.000   2.1728   0.01433   0.00938  -0.1968  0.0010  0.3353  -7.3294   0.0000   0.3185
  13.000   2.2294   0.01611   0.01121  -0.1878  0.0009  0.3734  -8.5522   0.0000   0.3101
  13.500   2.2274   0.01879   0.01407  -0.1788  0.0014  0.4337  -8.9148   0.0000   0.3051
  14.000   2.2481   0.02045   0.01579  -0.1740  0.0019  0.4478  -9.5265   0.0000   0.3011
  14.500   2.2675   0.02224   0.01761  -0.1695  0.0021  0.4586  -10.1382   0.0000   0.2973
  15.000   2.2840   0.02448   0.01991  -0.1651  0.0026  0.4891  -10.7370   0.0000   0.2937
  15.500   2.2986   0.02710   0.02260  -0.1609  0.0030  0.5154  -11.3290   0.0000   0.2902
  16.000   2.3112   0.03011   0.02567  -0.1571  0.0034  0.5332  -11.9161   0.0000   0.2869
  16.500   2.3220   0.03348   0.02911  -0.1535  0.0038  0.5629  -12.5015   0.0000   0.2838
  17.000   2.3298   0.03730   0.03300  -0.1502  0.0041  0.5882  -13.0726   0.0000   0.2808
  17.500   2.3345   0.04149   0.03729  -0.1471  0.0045  0.6211  -13.6249   0.0000   0.2780
  18.000   2.3364   0.04638   0.04225  -0.1443  0.0046  0.6332  -14.1633   0.0000   0.2754
  18.500   2.3380   0.05166   0.04761  -0.1421  0.0046  0.6584  -14.7082   0.0000   0.2730
  19.000   2.3452   0.05645   0.05249  -0.1405  0.0047  0.6903  -15.3166   0.0000   0.2707
  19.500   2.3401   0.06296   0.05909  -0.1391  0.0047  0.7190  -15.8126   0.0000   0.2687
  20.000   2.3311   0.07017   0.06642  -0.1382  0.0047  0.7499  -16.2736   0.0000   0.2670
  20.500   2.3184   0.07802   0.07438  -0.1378  0.0047  0.7811  -16.6988   0.0000   0.2656
  21.000   2.3005   0.08639   0.08287  -0.1379  0.0047  0.8076  -17.0695   0.0000   0.2645
  22.000   2.2797   0.10210   0.09878  -0.1396  0.0047  0.8471  -17.9640   0.0000   0.2625
  22.500   2.2562   0.11209   0.10889  -0.1418  0.0047  0.8604  -18.2537   0.0000   0.2624


