XFLR5 v6.02 Beta

 Calculated polar for: WORTMANN FX 63-137

 1 1 Reynolds number fixed          Mach number fixed         

 xtrf =   1.000 (top)        1.000 (bottom)
 Mach =   0.000     Re =    70.750 e 6     Ncrit =   9.000

  alpha     CL        CD       CDp       CM    Top Xtr Bot Xtr   Cpmin    Chinge    XCp    
 ------- -------- --------- --------- -------- ------- ------- -------- --------- ---------
 -22.500  -1.2645   0.05415   0.05097  -0.1527  0.4022  0.0014  -28.6107   0.0000   0.0918
 -22.000  -1.2901   0.04525   0.04197  -0.1596  0.4019  0.0014  -28.7287   0.0000   0.0908
 -21.500  -1.3122   0.03684   0.03347  -0.1663  0.4020  0.0014  -28.7487   0.0000   0.0896
 -21.000  -1.3146   0.03135   0.02791  -0.1704  0.4018  0.0014  -28.3784   0.0000   0.0883
 -20.500  -1.3139   0.02630   0.02280  -0.1741  0.4015  0.0014  -27.9431   0.0000   0.0869
 -19.500  -0.3070   0.17722   0.17466  -0.0791  0.1692  0.0015  -5.5826   0.0000  -0.0619
 -19.000  -0.2901   0.17176   0.16919  -0.0824  0.1691  0.0016  -5.3956   0.0000  -0.0894
 -18.000  -1.1499   0.01370   0.00987  -0.1893  0.3096  0.0015  -23.3519   0.0000   0.0599
 -17.500  -1.0969   0.01287   0.00897  -0.1907  0.2994  0.0016  -22.1805   0.0000   0.0513
 -17.000  -1.0423   0.01215   0.00821  -0.1919  0.2921  0.0017  -21.0146   0.0000   0.0415
 -16.500  -0.9867   0.01149   0.00753  -0.1930  0.2850  0.0018  -19.8620   0.0000   0.0304
 -16.000  -0.9302   0.01091   0.00691  -0.1941  0.2788  0.0019  -18.7275   0.0000   0.0178
 -15.500  -0.8731   0.01037   0.00635  -0.1952  0.2784  0.0020  -17.6143   0.0000   0.0032
 -15.000  -0.8164   0.00993   0.00583  -0.1960  0.2410  0.0021  -16.5360   0.0000  -0.0132
 -14.500  -0.7585   0.00949   0.00535  -0.1969  0.2218  0.0022  -15.4741   0.0000  -0.0327
 -14.000  -0.7000   0.00907   0.00491  -0.1979  0.2212  0.0023  -14.4372   0.0000  -0.0559
 -13.500  -0.6417   0.00873   0.00451  -0.1987  0.1934  0.0024  -13.5161   0.0000  -0.0831
 -13.000  -0.5828   0.00839   0.00413  -0.1996  0.1863  0.0026  -12.6197   0.0000  -0.1165
 -12.000  -0.4644   0.00778   0.00345  -0.2014  0.1446  0.0030  -10.9025   0.0000  -0.2096
 -11.500  -0.4045   0.00748   0.00313  -0.2024  0.1458  0.0034  -10.0785   0.0000  -0.2779
 -11.000  -0.3447   0.00724   0.00285  -0.2033  0.1420  0.0036  -9.2818   0.0000  -0.3697
 -10.500  -0.2849   0.00702   0.00261  -0.2041  0.1372  0.0039  -8.5106   0.0000  -0.5002
 -10.000  -0.2251   0.00685   0.00242  -0.2049  0.1322  0.0040  -7.7685   0.0000  -0.7001
  -9.500  -0.1653   0.00670   0.00225  -0.2057  0.1271  0.0041  -7.0568   0.0000  -1.0450
  -9.000  -0.1054   0.00657   0.00210  -0.2065  0.1237  0.0041  -6.3749   0.0000  -1.7819
  -8.500  -0.0455   0.00645   0.00196  -0.2072  0.1235  0.0041  -5.7208   0.0000  -4.4573
  -8.000   0.0143   0.00634   0.00184  -0.2079  0.1232  0.0042  -5.0965   0.0000  15.2519
  -7.500   0.0741   0.00625   0.00174  -0.2086  0.1228  0.0042  -4.5018   0.0000   3.1485
  -6.500   0.1930   0.00616   0.00158  -0.2099  0.1013  0.0043  -3.6511   0.0000   1.3649
  -6.000   0.2524   0.00613   0.00152  -0.2105  0.0984  0.0043  -3.2748   0.0000   1.1030
  -5.500   0.3119   0.00610   0.00148  -0.2111  0.0957  0.0044  -2.9138   0.0000   0.9411
  -5.000   0.3713   0.00608   0.00145  -0.2117  0.0929  0.0044  -2.5681   0.0000   0.8310
  -4.500   0.4305   0.00607   0.00142  -0.2123  0.0864  0.0044  -2.2378   0.0000   0.7513
  -4.000   0.4897   0.00607   0.00141  -0.2129  0.0842  0.0045  -1.9232   0.0000   0.6909
  -3.500   0.5488   0.00608   0.00141  -0.2134  0.0841  0.0045  -1.6245   0.0000   0.6436
  -3.000   0.6078   0.00610   0.00142  -0.2139  0.0840  0.0046  -1.3416   0.0000   0.6055
  -2.500   0.6666   0.00613   0.00144  -0.2144  0.0838  0.0046  -1.0742   0.0000   0.5741
  -2.000   0.7235   0.00632   0.00153  -0.2146  0.0475  0.0048  -0.9628   0.0000   0.5479
  -1.500   0.7817   0.00639   0.00158  -0.2150  0.0445  0.0055  -1.0133   0.0000   0.5254
  -1.000   0.8398   0.00647   0.00165  -0.2153  0.0421  0.0064  -1.0657   0.0000   0.5061
  -0.500   0.8977   0.00655   0.00172  -0.2157  0.0399  0.0071  -1.1183   0.0000   0.4891
   0.000   0.9555   0.00664   0.00180  -0.2160  0.0382  0.0076  -1.1712   0.0000   0.4742
   0.500   1.0130   0.00675   0.00189  -0.2163  0.0381  0.0095  -1.2263   0.0000   0.4610
   1.000   1.0706   0.00684   0.00199  -0.2167  0.0391  0.0169  -1.2916   0.0000   0.4491
   1.500   1.1276   0.00696   0.00210  -0.2169  0.0384  0.0171  -1.3674   0.0000   0.4383
   2.000   1.1829   0.00722   0.00229  -0.2168  0.0246  0.0203  -1.4422   0.0000   0.4285
   3.500   1.3485   0.00795   0.00294  -0.2165  0.0013  0.0387  -1.7669   0.0000   0.4037
   4.000   1.4035   0.00817   0.00314  -0.2164  0.0013  0.0413  -1.9140   0.0000   0.3966
   4.500   1.4581   0.00841   0.00336  -0.2162  0.0013  0.0469  -2.0930   0.0000   0.3899
   5.000   1.5125   0.00865   0.00361  -0.2161  0.0013  0.0664  -2.2766   0.0000   0.3837
   5.500   1.5662   0.00892   0.00386  -0.2158  0.0013  0.0722  -2.4640   0.0000   0.3778
   6.000   1.6197   0.00919   0.00414  -0.2155  0.0012  0.1044  -2.6559   0.0000   0.3723
   6.500   1.6724   0.00950   0.00443  -0.2151  0.0012  0.1163  -2.8511   0.0000   0.3670
   8.500   1.8764   0.01090   0.00580  -0.2123  0.0012  0.1550  -3.6652   0.0000   0.3480
   9.000   1.9258   0.01129   0.00622  -0.2114  0.0012  0.2103  -3.9445   0.0000   0.3437
  10.500   2.0663   0.01266   0.00766  -0.2074  0.0011  0.3293  -5.5247   0.0000   0.3314
  11.000   2.1089   0.01321   0.00821  -0.2053  0.0011  0.3391  -6.1449   0.0000   0.3273
  12.000   2.1673   0.01454   0.00957  -0.1958  0.0010  0.3693  -7.2909   0.0000   0.3183
  12.500   2.1962   0.01538   0.01043  -0.1913  0.0010  0.3695  -7.8948   0.0000   0.3140
  13.000   2.2240   0.01636   0.01143  -0.1869  0.0009  0.3978  -8.5114   0.0000   0.3099
  14.000   2.2433   0.02076   0.01608  -0.1734  0.0016  0.4638  -9.4677   0.0000   0.3010
  14.500   2.2577   0.02284   0.01821  -0.1682  0.0017  0.4685  -10.0309   0.0000   0.2971
  15.000   2.2771   0.02499   0.02040  -0.1643  0.0022  0.4998  -10.6793   0.0000   0.2936
  15.500   2.2930   0.02758   0.02306  -0.1604  0.0027  0.5322  -11.2823   0.0000   0.2901
  16.000   2.3059   0.03060   0.02615  -0.1567  0.0031  0.5623  -11.8726   0.0000   0.2869
  16.500   2.3160   0.03403   0.02964  -0.1530  0.0035  0.5831  -12.4501   0.0000   0.2837
  17.000   2.3240   0.03792   0.03363  -0.1499  0.0038  0.6233  -13.0213   0.0000   0.2808
  17.500   2.3269   0.04228   0.03806  -0.1466  0.0043  0.6329  -13.5557   0.0000   0.2780
  18.500   2.3299   0.05273   0.04869  -0.1420  0.0046  0.6894  -14.6281   0.0000   0.2731
  19.000   2.3261   0.05896   0.05502  -0.1403  0.0046  0.7172  -15.1278   0.0000   0.2710
  19.500   2.3332   0.06396   0.06010  -0.1391  0.0046  0.7540  -15.7418   0.0000   0.2689
  20.000   2.3245   0.07126   0.06752  -0.1384  0.0047  0.7943  -16.2041   0.0000   0.2673
  20.500   2.3118   0.07912   0.07550  -0.1382  0.0047  0.8267  -16.6276   0.0000   0.2659
  21.000   2.2939   0.08766   0.08417  -0.1384  0.0047  0.8472  -16.9959   0.0000   0.2649
  21.500   2.2787   0.09733   0.09401  -0.1405  0.0047  0.9215  -17.3888   0.0000   0.2645


