XFLR5 v6.02 Beta

 Calculated polar for: WORTMANN FX 63-137

 1 1 Reynolds number fixed          Mach number fixed         

 xtrf =   1.000 (top)        1.000 (bottom)
 Mach =   0.000     Re =    33.500 e 6     Ncrit =   9.000

  alpha     CL        CD       CDp       CM    Top Xtr Bot Xtr   Cpmin    Chinge    XCp    
 ------- -------- --------- --------- -------- ------- ------- -------- --------- ---------
 -21.000  -1.1885   0.04631   0.04308  -0.1563  0.5538  0.0020  -26.0471   0.0000   0.0845
 -20.500  -1.2037   0.03853   0.03518  -0.1625  0.5329  0.0021  -25.9692   0.0000   0.0827
 -20.000  -1.2130   0.03197   0.02853  -0.1677  0.5309  0.0021  -25.7545   0.0000   0.0812
 -19.500  -1.2121   0.02671   0.02319  -0.1718  0.5306  0.0022  -25.3487   0.0000   0.0792
 -19.000  -1.1989   0.02306   0.01944  -0.1740  0.5020  0.0022  -24.7259   0.0000   0.0770
 -18.500  -1.1857   0.01976   0.01606  -0.1756  0.4949  0.0023  -24.0932   0.0000   0.0754
 -18.000  -1.1468   0.01702   0.01324  -0.1804  0.4846  0.0024  -23.1461   0.0000   0.0671
 -17.500  -1.0952   0.01490   0.01095  -0.1863  0.4198  0.0025  -22.0548   0.0000   0.0550
 -17.000  -1.0430   0.01379   0.00978  -0.1883  0.4007  0.0026  -20.9346   0.0000   0.0451
 -16.500  -0.9899   0.01292   0.00881  -0.1897  0.3695  0.0028  -19.8228   0.0000   0.0345
 -16.000  -0.9349   0.01214   0.00797  -0.1911  0.3602  0.0029  -18.7130   0.0000   0.0221
 -15.500  -0.8786   0.01144   0.00723  -0.1923  0.3537  0.0031  -17.6150   0.0000   0.0079
 -15.000  -0.8215   0.01083   0.00658  -0.1935  0.3441  0.0032  -16.5346   0.0000  -0.0086
 -14.500  -0.7637   0.01028   0.00599  -0.1947  0.3373  0.0034  -15.4757   0.0000  -0.0279
 -14.000  -0.7072   0.00990   0.00549  -0.1954  0.2778  0.0036  -14.4586   0.0000  -0.0493
 -13.500  -0.6494   0.00954   0.00504  -0.1963  0.2476  0.0036  -13.5252   0.0000  -0.0754
 -13.000  -0.5908   0.00918   0.00462  -0.1972  0.2385  0.0037  -12.6259   0.0000  -0.1074
 -12.500  -0.5317   0.00884   0.00425  -0.1981  0.2298  0.0038  -11.7498   0.0000  -0.1469
 -12.000  -0.4734   0.00861   0.00392  -0.1988  0.1831  0.0038  -10.9078   0.0000  -0.1954
 -11.500  -0.4138   0.00832   0.00361  -0.1997  0.1876  0.0039  -10.0788   0.0000  -0.2597
 -11.000  -0.3543   0.00808   0.00333  -0.2006  0.1772  0.0039  -9.2837   0.0000  -0.3454
 -10.500  -0.2946   0.00785   0.00307  -0.2015  0.1703  0.0040  -8.5156   0.0000  -0.4666
 -10.000  -0.2347   0.00764   0.00284  -0.2023  0.1697  0.0040  -7.7761   0.0000  -0.6500
  -9.500  -0.1748   0.00745   0.00263  -0.2032  0.1689  0.0041  -7.0668   0.0000  -0.9595
  -9.000  -0.1156   0.00734   0.00245  -0.2039  0.1429  0.0041  -6.3935   0.0000  -1.5797
  -8.500  -0.0559   0.00721   0.00228  -0.2046  0.1373  0.0041  -5.7423   0.0000  -3.5372
  -8.000   0.0039   0.00709   0.00214  -0.2054  0.1322  0.0042  -5.1197   0.0000  54.5995
  -7.500   0.0637   0.00698   0.00201  -0.2061  0.1271  0.0042  -4.5265   0.0000   3.5810
  -7.000   0.1235   0.00689   0.00189  -0.2069  0.1241  0.0043  -4.0512   0.0000   1.9707
  -6.500   0.1833   0.00681   0.00180  -0.2076  0.1238  0.0043  -3.6608   0.0000   1.4112
  -6.000   0.2429   0.00675   0.00172  -0.2083  0.1235  0.0043  -3.2856   0.0000   1.1270
  -5.500   0.3025   0.00670   0.00166  -0.2089  0.1231  0.0044  -2.9257   0.0000   0.9551
  -5.000   0.3620   0.00666   0.00162  -0.2096  0.1225  0.0044  -2.5792   0.0000   0.8398
  -4.500   0.4206   0.00670   0.00160  -0.2100  0.1032  0.0045  -2.2532   0.0000   0.7577
  -4.000   0.4795   0.00673   0.00159  -0.2105  0.0988  0.0045  -1.9407   0.0000   0.6955
  -3.500   0.5383   0.00676   0.00159  -0.2110  0.0899  0.0046  -1.6433   0.0000   0.6469
  -3.000   0.5971   0.00678   0.00160  -0.2116  0.0868  0.0055  -1.3608   0.0000   0.6078
  -2.500   0.6558   0.00681   0.00162  -0.2121  0.0843  0.0051  -1.0929   0.0000   0.5757
  -2.000   0.7144   0.00685   0.00165  -0.2125  0.0841  0.0063  -0.9573   0.0000   0.5489
  -1.500   0.7727   0.00691   0.00170  -0.2130  0.0832  0.0078  -1.0075   0.0000   0.5261
  -1.000   0.8298   0.00707   0.00181  -0.2132  0.0651  0.0090  -1.0589   0.0000   0.5065
   0.000   0.9447   0.00731   0.00199  -0.2137  0.0503  0.0152  -1.1636   0.0000   0.4744
   0.500   1.0018   0.00744   0.00211  -0.2139  0.0473  0.0158  -1.2176   0.0000   0.4610
   1.000   1.0592   0.00754   0.00220  -0.2143  0.0496  0.0170  -1.2818   0.0000   0.4490
   1.500   1.1159   0.00768   0.00233  -0.2144  0.0483  0.0173  -1.3571   0.0000   0.4382
   2.000   1.1722   0.00785   0.00248  -0.2145  0.0458  0.0204  -1.4328   0.0000   0.4283
   2.500   1.2243   0.00838   0.00289  -0.2138  0.0029  0.0374  -1.5189   0.0000   0.4192
   3.000   1.2795   0.00860   0.00309  -0.2137  0.0022  0.0382  -1.6317   0.0000   0.4109
   3.500   1.3345   0.00883   0.00331  -0.2136  0.0017  0.0442  -1.7488   0.0000   0.4032
   4.000   1.3889   0.00908   0.00354  -0.2134  0.0021  0.0477  -1.8891   0.0000   0.3960
   5.000   1.4967   0.00962   0.00407  -0.2129  0.0013  0.0686  -2.2477   0.0000   0.3831
   6.000   1.6030   0.01021   0.00470  -0.2122  0.0012  0.1457  -2.6232   0.0000   0.3716
   6.500   1.6547   0.01056   0.00503  -0.2116  0.0012  0.1574  -2.8157   0.0000   0.3663
   7.500   1.7564   0.01130   0.00578  -0.2102  0.0012  0.1991  -3.2109   0.0000   0.3564
   8.000   1.8053   0.01172   0.00619  -0.2091  0.0012  0.1958  -3.4118   0.0000   0.3516
   8.500   1.8550   0.01212   0.00667  -0.2083  0.0012  0.2793  -3.6179   0.0000   0.3472
   9.000   1.9023   0.01258   0.00715  -0.2070  0.0012  0.3104  -3.8763   0.0000   0.3428
   9.500   1.9478   0.01309   0.00767  -0.2054  0.0011  0.3370  -4.1833   0.0000   0.3385
  10.000   1.9937   0.01360   0.00829  -0.2040  0.0011  0.4391  -4.7521   0.0000   0.3344
  10.500   2.0272   0.01421   0.00892  -0.2000  0.0011  0.4588  -5.2807   0.0000   0.3297
  11.000   2.0577   0.01491   0.00964  -0.1956  0.0011  0.4663  -5.8145   0.0000   0.3251
  12.500   2.1446   0.01782   0.01265  -0.1827  0.0010  0.5280  -7.5230   0.0000   0.3122
  13.000   2.1711   0.01911   0.01397  -0.1786  0.0010  0.5493  -8.1165   0.0000   0.3082
  13.500   2.1965   0.02058   0.01550  -0.1746  0.0009  0.5791  -8.7214   0.0000   0.3044
  14.000   2.2199   0.02228   0.01728  -0.1707  0.0009  0.6285  -9.3299   0.0000   0.3006
  14.500   2.2393   0.02436   0.01942  -0.1667  0.0009  0.6607  -9.9261   0.0000   0.2970
  15.000   2.2580   0.02672   0.02185  -0.1629  0.0009  0.6933  -10.5328   0.0000   0.2935
  15.500   2.2745   0.02944   0.02465  -0.1594  0.0008  0.7315  -11.1383   0.0000   0.2902
  16.000   2.2907   0.03244   0.02773  -0.1563  0.0008  0.7757  -11.7568   0.0000   0.2871
  16.500   2.3052   0.03591   0.03132  -0.1537  0.0007  0.8502  -12.3752   0.0000   0.2843
  17.000   2.3248   0.03927   0.03489  -0.1521  0.0007  1.0000  -13.0558   0.0000   0.2817
  18.500   2.2647   0.06242   0.05849  -0.1423  0.0020  1.0000  -14.0095   0.0000   0.2748
  19.000   2.2573   0.06944   0.06561  -0.1412  0.0023  1.0000  -14.4598   0.0000   0.2731
  19.500   2.2461   0.07713   0.07339  -0.1406  0.0025  1.0000  -14.8737   0.0000   0.2716


