XFLR5 v6.02 Beta

 Calculated polar for: WORTMANN FX 63-137

 1 1 Reynolds number fixed          Mach number fixed         

 xtrf =   1.000 (top)        1.000 (bottom)
 Mach =   0.000     Re =    29.000 e 6     Ncrit =   9.000

  alpha     CL        CD       CDp       CM    Top Xtr Bot Xtr   Cpmin    Chinge    XCp    
 ------- -------- --------- --------- -------- ------- ------- -------- --------- ---------
 -21.000  -1.1582   0.05027   0.04716  -0.1525  0.5974  0.0023  -25.4668   0.0000   0.0838
 -20.500  -1.1868   0.04055   0.03731  -0.1604  0.5954  0.0023  -25.6536   0.0000   0.0823
 -20.000  -1.2008   0.03332   0.02991  -0.1663  0.5624  0.0023  -25.5327   0.0000   0.0807
 -19.500  -1.1979   0.02843   0.02491  -0.1699  0.5402  0.0024  -25.0949   0.0000   0.0788
 -19.000  -1.1901   0.02392   0.02033  -0.1733  0.5332  0.0024  -24.5749   0.0000   0.0765
 -18.500  -1.1786   0.02052   0.01687  -0.1746  0.5316  0.0025  -23.9673   0.0000   0.0752
 -18.000  -1.1433   0.01760   0.01389  -0.1791  0.5306  0.0026  -23.0704   0.0000   0.0677
 -17.500  -1.0940   0.01526   0.01137  -0.1853  0.4727  0.0027  -22.0156   0.0000   0.0557
 -17.000  -1.0438   0.01412   0.01006  -0.1875  0.4063  0.0028  -20.9248   0.0000   0.0461
 -16.500  -0.9899   0.01315   0.00904  -0.1892  0.4013  0.0030  -19.8048   0.0000   0.0350
 -16.000  -0.9345   0.01232   0.00817  -0.1907  0.4006  0.0032  -18.6914   0.0000   0.0225
 -15.000  -0.8224   0.01105   0.00677  -0.1930  0.3647  0.0035  -16.5249   0.0000  -0.0076
 -14.500  -0.7653   0.01054   0.00620  -0.1940  0.3486  0.0036  -15.4715   0.0000  -0.0264
 -14.000  -0.7090   0.01018   0.00570  -0.1947  0.2857  0.0036  -14.4570   0.0000  -0.0475
 -13.500  -0.6505   0.00975   0.00523  -0.1957  0.2772  0.0037  -13.5065   0.0000  -0.0740
 -13.000  -0.5923   0.00940   0.00482  -0.1966  0.2568  0.0037  -12.6114   0.0000  -0.1055
 -12.500  -0.5336   0.00907   0.00442  -0.1975  0.2429  0.0038  -11.7387   0.0000  -0.1444
 -12.000  -0.4746   0.00877   0.00407  -0.1983  0.2204  0.0038  -10.8916   0.0000  -0.1932
 -11.500  -0.4151   0.00848   0.00375  -0.1993  0.2207  0.0039  -10.0623   0.0000  -0.2570
 -11.000  -0.3564   0.00828   0.00346  -0.2000  0.1862  0.0040  -9.2743   0.0000  -0.3401
 -10.500  -0.2968   0.00805   0.00319  -0.2009  0.1788  0.0040  -8.5071   0.0000  -0.4591
 -10.000  -0.2370   0.00783   0.00295  -0.2017  0.1708  0.0040  -7.7684   0.0000  -0.6388
  -9.500  -0.1771   0.00764   0.00273  -0.2026  0.1697  0.0041  -7.0603   0.0000  -0.9408
  -9.000  -0.1171   0.00746   0.00252  -0.2034  0.1685  0.0041  -6.3850   0.0000  -1.5522
  -8.500  -0.0580   0.00736   0.00236  -0.2041  0.1431  0.0041  -5.7383   0.0000  -3.3952
  -8.000   0.0017   0.00724   0.00220  -0.2048  0.1377  0.0042  -5.1179   0.0000  121.1219
  -7.500   0.0615   0.00713   0.00207  -0.2056  0.1326  0.0042  -4.5263   0.0000   3.6908
  -7.000   0.1213   0.00704   0.00195  -0.2063  0.1290  0.0043  -4.0501   0.0000   1.9974
  -6.500   0.1811   0.00696   0.00185  -0.2070  0.1247  0.0043  -3.6609   0.0000   1.4224
  -6.000   0.2408   0.00689   0.00177  -0.2077  0.1238  0.0043  -3.2867   0.0000   1.1328
  -5.500   0.3004   0.00684   0.00171  -0.2084  0.1235  0.0044  -2.9272   0.0000   0.9585
  -5.000   0.3598   0.00680   0.00165  -0.2091  0.1230  0.0044  -2.5810   0.0000   0.8420
  -4.500   0.4192   0.00678   0.00162  -0.2097  0.1223  0.0045  -2.2535   0.0000   0.7586
  -4.000   0.4776   0.00684   0.00163  -0.2101  0.1029  0.0045  -1.9430   0.0000   0.6963
  -3.500   0.5361   0.00690   0.00163  -0.2106  0.0925  0.0046  -1.6467   0.0000   0.6476
  -3.000   0.5949   0.00692   0.00164  -0.2111  0.0894  0.0058  -1.3646   0.0000   0.6083
  -2.500   0.6536   0.00695   0.00166  -0.2116  0.0862  0.0061  -1.0968   0.0000   0.5761
  -2.000   0.7121   0.00700   0.00169  -0.2120  0.0842  0.0068  -0.9559   0.0000   0.5491
  -1.000   0.8286   0.00712   0.00181  -0.2129  0.0824  0.0096  -1.0582   0.0000   0.5066
  -0.500   0.8853   0.00731   0.00193  -0.2130  0.0629  0.0150  -1.1097   0.0000   0.4895
   0.000   0.9424   0.00745   0.00203  -0.2132  0.0523  0.0154  -1.1620   0.0000   0.4744
   0.500   0.9996   0.00758   0.00214  -0.2135  0.0500  0.0159  -1.2159   0.0000   0.4610
   1.000   1.0569   0.00768   0.00224  -0.2138  0.0513  0.0171  -1.2798   0.0000   0.4490
   1.500   1.1137   0.00781   0.00237  -0.2140  0.0512  0.0173  -1.3551   0.0000   0.4381
   2.000   1.1699   0.00799   0.00252  -0.2141  0.0484  0.0211  -1.4308   0.0000   0.4283
   2.500   1.2215   0.00855   0.00296  -0.2132  0.0033  0.0375  -1.5160   0.0000   0.4191
   3.000   1.2767   0.00878   0.00317  -0.2131  0.0025  0.0383  -1.6280   0.0000   0.4108
   3.500   1.3315   0.00902   0.00339  -0.2130  0.0020  0.0455  -1.7450   0.0000   0.4031
   4.000   1.3859   0.00927   0.00363  -0.2128  0.0024  0.0492  -1.8838   0.0000   0.3959
   4.500   1.4400   0.00953   0.00389  -0.2126  0.0018  0.0663  -2.0608   0.0000   0.3893
   5.000   1.4933   0.00982   0.00417  -0.2122  0.0014  0.0718  -2.2415   0.0000   0.3830
   5.500   1.5465   0.01012   0.00448  -0.2119  0.0013  0.1022  -2.4268   0.0000   0.3771
   6.000   1.5994   0.01043   0.00482  -0.2115  0.0012  0.1470  -2.6161   0.0000   0.3715
   6.500   1.6511   0.01077   0.00516  -0.2109  0.0012  0.1686  -2.8083   0.0000   0.3662
   7.000   1.7022   0.01114   0.00554  -0.2103  0.0012  0.1958  -3.0041   0.0000   0.3611
   7.500   1.7522   0.01154   0.00594  -0.2094  0.0012  0.2163  -3.2022   0.0000   0.3562
   8.000   1.8007   0.01197   0.00636  -0.2082  0.0012  0.2115  -3.4018   0.0000   0.3515
   8.500   1.8507   0.01237   0.00686  -0.2075  0.0012  0.3145  -3.6082   0.0000   0.3470
   9.000   1.8974   0.01285   0.00736  -0.2061  0.0012  0.3399  -3.8620   0.0000   0.3426
   9.500   1.9425   0.01338   0.00790  -0.2044  0.0011  0.3700  -4.1522   0.0000   0.3383
  10.000   1.9875   0.01391   0.00854  -0.2029  0.0011  0.4660  -4.7144   0.0000   0.3341
  10.500   2.0168   0.01455   0.00921  -0.1980  0.0011  0.4819  -5.2173   0.0000   0.3293
  11.000   2.0476   0.01531   0.00998  -0.1937  0.0011  0.4964  -5.7495   0.0000   0.3247
  11.500   2.0780   0.01618   0.01088  -0.1895  0.0011  0.5109  -6.3040   0.0000   0.3203
  12.000   2.1071   0.01719   0.01193  -0.1854  0.0010  0.5324  -6.8717   0.0000   0.3161
  12.500   2.1346   0.01836   0.01314  -0.1812  0.0010  0.5528  -7.4508   0.0000   0.3119
  13.000   2.1608   0.01972   0.01454  -0.1771  0.0010  0.5768  -8.0393   0.0000   0.3079
  13.500   2.1856   0.02131   0.01622  -0.1732  0.0009  0.6277  -8.6365   0.0000   0.3041
  14.000   2.2060   0.02318   0.01815  -0.1690  0.0009  0.6596  -9.2207   0.0000   0.3004
  14.500   2.2263   0.02533   0.02037  -0.1652  0.0009  0.6923  -9.8194   0.0000   0.2968
  15.000   2.2453   0.02776   0.02288  -0.1617  0.0009  0.7324  -10.4258   0.0000   0.2934
  15.500   2.2627   0.03055   0.02575  -0.1584  0.0008  0.7758  -11.0348   0.0000   0.2902
  16.000   2.2798   0.03369   0.02902  -0.1558  0.0008  0.8526  -11.6569   0.0000   0.2872
  16.500   2.2967   0.03725   0.03279  -0.1538  0.0008  1.0000  -12.2932   0.0000   0.2845
  17.000   2.3038   0.04125   0.03685  -0.1507  0.0007  1.0000  -12.8587   0.0000   0.2817
  17.500   2.3074   0.04598   0.04164  -0.1480  0.0006  1.0000  -13.4063   0.0000   0.2790
  19.000   2.2334   0.07234   0.06849  -0.1406  0.0017  1.0000  -14.1903   0.0000   0.2735
  19.500   2.2313   0.07883   0.07505  -0.1403  0.0019  1.0000  -14.7202   0.0000   0.2719


