XFLR5 v6.02 Beta

 Calculated polar for: WORTMANN FX 63-137

 1 1 Reynolds number fixed          Mach number fixed         

 xtrf =   1.000 (top)        1.000 (bottom)
 Mach =   0.000     Re =    42.000 e 6     Ncrit =   9.000

  alpha     CL        CD       CDp       CM    Top Xtr Bot Xtr   Cpmin    Chinge    XCp    
 ------- -------- --------- --------- -------- ------- ------- -------- --------- ---------
 -24.000  -0.4545   0.22636   0.22402  -0.0442  0.3391  0.0014  -6.6925   0.0000   0.1032
 -21.500  -1.1981   0.05093   0.04771  -0.1534  0.4980  0.0017  -26.5935   0.0000   0.0866
 -21.000  -1.2289   0.04118   0.03782  -0.1612  0.4889  0.0018  -26.8093   0.0000   0.0854
 -20.500  -1.2372   0.03471   0.03126  -0.1661  0.4732  0.0018  -26.5779   0.0000   0.0840
 -20.000  -1.2412   0.02896   0.02543  -0.1705  0.4681  0.0018  -26.2509   0.0000   0.0825
 -19.500  -1.2318   0.02476   0.02117  -0.1735  0.4666  0.0019  -25.6869   0.0000   0.0804
 -19.000  -1.2175   0.02117   0.01753  -0.1756  0.4658  0.0019  -25.0378   0.0000   0.0782
 -18.500  -1.1940   0.01826   0.01457  -0.1782  0.4657  0.0020  -24.2634   0.0000   0.0744
 -18.000  -1.1484   0.01584   0.01203  -0.1836  0.4333  0.0021  -23.2250   0.0000   0.0646
 -17.500  -1.0966   0.01435   0.01036  -0.1875  0.3588  0.0022  -22.1045   0.0000   0.0541
 -17.000  -1.0436   0.01338   0.00935  -0.1892  0.3479  0.0023  -20.9680   0.0000   0.0444
 -16.500  -0.9890   0.01254   0.00847  -0.1907  0.3392  0.0024  -19.8353   0.0000   0.0333
 -16.000  -0.9332   0.01180   0.00769  -0.1920  0.3383  0.0025  -18.7152   0.0000   0.0208
 -15.500  -0.8765   0.01112   0.00698  -0.1932  0.3377  0.0027  -17.6123   0.0000   0.0063
 -15.000  -0.8191   0.01052   0.00635  -0.1944  0.3375  0.0029  -16.5294   0.0000  -0.0104
 -14.500  -0.7629   0.01008   0.00579  -0.1952  0.2774  0.0030  -15.4884   0.0000  -0.0289
 -14.000  -0.7054   0.00964   0.00528  -0.1961  0.2463  0.0032  -14.4624   0.0000  -0.0511
 -13.500  -0.6470   0.00925   0.00483  -0.1971  0.2284  0.0033  -13.5378   0.0000  -0.0779
 -13.000  -0.5879   0.00886   0.00441  -0.1981  0.2220  0.0035  -12.6353   0.0000  -0.1107
 -12.500  -0.5286   0.00851   0.00403  -0.1991  0.2206  0.0037  -11.7562   0.0000  -0.1510
 -12.000  -0.4702   0.00828   0.00371  -0.1998  0.1703  0.0038  -10.9120   0.0000  -0.2004
 -11.500  -0.4106   0.00801   0.00341  -0.2007  0.1703  0.0039  -10.0836   0.0000  -0.2658
 -11.000  -0.3510   0.00777   0.00315  -0.2015  0.1699  0.0039  -9.2864   0.0000  -0.3537
 -10.500  -0.2912   0.00756   0.00291  -0.2024  0.1693  0.0040  -8.5175   0.0000  -0.4780
 -10.000  -0.2314   0.00736   0.00270  -0.2032  0.1688  0.0040  -7.7773   0.0000  -0.6670
  -9.500  -0.1721   0.00723   0.00251  -0.2039  0.1446  0.0041  -7.0710   0.0000  -0.9833
  -9.000  -0.1125   0.00710   0.00233  -0.2047  0.1342  0.0041  -6.3928   0.0000  -1.6380
  -8.500  -0.0526   0.00697   0.00218  -0.2054  0.1291  0.0041  -5.7396   0.0000  -3.7886
  -8.000   0.0072   0.00685   0.00204  -0.2062  0.1243  0.0042  -5.1158   0.0000  29.7622
  -7.500   0.0670   0.00675   0.00192  -0.2069  0.1238  0.0042  -4.5216   0.0000   3.4284
  -7.000   0.1268   0.00666   0.00181  -0.2077  0.1236  0.0043  -4.0498   0.0000   1.9321
  -6.500   0.1866   0.00659   0.00173  -0.2084  0.1233  0.0043  -3.6584   0.0000   1.3949
  -6.000   0.2462   0.00653   0.00166  -0.2090  0.1229  0.0043  -3.2824   0.0000   1.1185
  -5.500   0.3058   0.00648   0.00160  -0.2097  0.1224  0.0044  -2.9217   0.0000   0.9501
  -5.000   0.3645   0.00651   0.00157  -0.2102  0.1019  0.0044  -2.5781   0.0000   0.8374
  -4.500   0.4236   0.00651   0.00154  -0.2107  0.0989  0.0045  -2.2492   0.0000   0.7557
  -4.000   0.4826   0.00653   0.00154  -0.2113  0.0913  0.0045  -1.9359   0.0000   0.6941
  -3.500   0.5416   0.00654   0.00154  -0.2118  0.0861  0.0046  -1.6376   0.0000   0.6458
  -3.000   0.6005   0.00656   0.00155  -0.2123  0.0844  0.0050  -1.3549   0.0000   0.6071
  -2.500   0.6592   0.00660   0.00157  -0.2128  0.0841  0.0048  -1.0871   0.0000   0.5752
  -2.000   0.7178   0.00664   0.00160  -0.2133  0.0838  0.0057  -0.9594   0.0000   0.5485
  -1.500   0.7748   0.00682   0.00169  -0.2134  0.0606  0.0070  -1.0087   0.0000   0.5260
  -1.000   0.8327   0.00690   0.00176  -0.2138  0.0513  0.0081  -1.0608   0.0000   0.5064
  -0.500   0.8903   0.00701   0.00185  -0.2141  0.0488  0.0090  -1.1132   0.0000   0.4894
   0.000   0.9478   0.00712   0.00194  -0.2144  0.0460  0.0097  -1.1658   0.0000   0.4743
   0.500   1.0053   0.00723   0.00204  -0.2147  0.0434  0.0157  -1.2203   0.0000   0.4610
   1.000   1.0626   0.00734   0.00214  -0.2150  0.0460  0.0170  -1.2847   0.0000   0.4490
   1.500   1.1194   0.00747   0.00227  -0.2152  0.0447  0.0172  -1.3601   0.0000   0.4382
   2.000   1.1760   0.00762   0.00240  -0.2153  0.0428  0.0196  -1.4362   0.0000   0.4284
   2.500   1.2284   0.00811   0.00279  -0.2146  0.0024  0.0373  -1.5233   0.0000   0.4193
   3.500   1.3389   0.00855   0.00319  -0.2145  0.0014  0.0422  -1.7546   0.0000   0.4033
   4.000   1.3936   0.00879   0.00341  -0.2144  0.0016  0.0455  -1.8970   0.0000   0.3962
   5.000   1.5018   0.00931   0.00392  -0.2139  0.0013  0.0671  -2.2569   0.0000   0.3833
   5.500   1.5550   0.00960   0.00420  -0.2136  0.0013  0.0810  -2.4429   0.0000   0.3774
   6.000   1.6082   0.00989   0.00452  -0.2132  0.0012  0.1227  -2.6334   0.0000   0.3718
   6.500   1.6605   0.01021   0.00484  -0.2128  0.0012  0.1462  -2.8272   0.0000   0.3665
   7.000   1.7118   0.01057   0.00518  -0.2121  0.0012  0.1602  -3.0239   0.0000   0.3615
   8.000   1.8120   0.01134   0.00595  -0.2104  0.0012  0.1713  -3.4262   0.0000   0.3519
  10.000   2.0031   0.01313   0.00791  -0.2057  0.0011  0.4014  -4.8086   0.0000   0.3347
  10.500   2.0456   0.01369   0.00850  -0.2036  0.0011  0.4323  -5.3926   0.0000   0.3306
  11.000   2.0729   0.01435   0.00916  -0.1984  0.0011  0.4337  -5.9133   0.0000   0.3258
  11.500   2.1024   0.01511   0.00994  -0.1938  0.0011  0.4375  -6.4689   0.0000   0.3213
  12.000   2.1323   0.01599   0.01083  -0.1895  0.0010  0.4415  -7.0482   0.0000   0.3169
  12.500   2.1613   0.01699   0.01189  -0.1854  0.0010  0.4868  -7.6428   0.0000   0.3128
  13.000   2.1889   0.01816   0.01310  -0.1813  0.0010  0.5161  -8.2486   0.0000   0.3088
  13.500   2.2140   0.01954   0.01451  -0.1771  0.0009  0.5298  -8.8561   0.0000   0.3048
  14.000   2.2372   0.02116   0.01619  -0.1729  0.0009  0.5636  -9.4680   0.0000   0.3010
  14.500   2.2581   0.02302   0.01814  -0.1689  0.0009  0.6204  -10.0802   0.0000   0.2973
  15.000   2.2773   0.02519   0.02035  -0.1649  0.0008  0.6427  -10.6966   0.0000   0.2938
  15.500   2.2954   0.02768   0.02292  -0.1613  0.0008  0.6821  -11.3214   0.0000   0.2904
  16.500   2.2693   0.03867   0.03423  -0.1500  0.0014  0.7211  -11.9980   0.0000   0.2838
  17.000   2.2745   0.04309   0.03878  -0.1472  0.0017  0.7654  -12.5411   0.0000   0.2810
  17.500   2.2807   0.04798   0.04377  -0.1452  0.0020  0.8238  -13.1351   0.0000   0.2786
  18.000   2.2902   0.05366   0.04972  -0.1449  0.0027  1.0000  -13.7381   0.0000   0.2767
  18.500   2.2858   0.06003   0.05617  -0.1431  0.0029  1.0000  -14.2145   0.0000   0.2746
  19.000   2.2903   0.06530   0.06150  -0.1417  0.0033  1.0000  -14.7814   0.0000   0.2724
  19.500   2.2802   0.07268   0.06897  -0.1407  0.0035  1.0000  -15.2129   0.0000   0.2708


