XFLR5 v6.02 Beta

 Calculated polar for: WORTMANN FX 63-137

 1 1 Reynolds number fixed          Mach number fixed         

 xtrf =   1.000 (top)        1.000 (bottom)
 Mach =   0.000     Re =    12.750 e 6     Ncrit =   9.000

  alpha     CL        CD       CDp       CM    Top Xtr Bot Xtr   Cpmin    Chinge    XCp    
 ------- -------- --------- --------- -------- ------- ------- -------- --------- ---------
 -19.500  -1.0050   0.05281   0.05002  -0.1462  0.7640  0.0033  -21.4931   0.0000   0.0718
 -19.000  -1.0413   0.04114   0.03813  -0.1564  0.7455  0.0034  -21.8727   0.0000   0.0692
 -18.500  -1.0503   0.03387   0.03069  -0.1629  0.7250  0.0034  -21.7165   0.0000   0.0661
 -18.000  -1.0466   0.02834   0.02505  -0.1677  0.7184  0.0034  -21.3268   0.0000   0.0624
 -17.500  -1.0339   0.02411   0.02069  -0.1712  0.6941  0.0035  -20.7790   0.0000   0.0583
 -17.000  -1.0155   0.02092   0.01739  -0.1732  0.6818  0.0035  -20.1305   0.0000   0.0546
 -16.500  -0.9765   0.01819   0.01454  -0.1779  0.6592  0.0035  -19.2498   0.0000   0.0437
 -16.000  -0.9270   0.01611   0.01223  -0.1833  0.6000  0.0036  -18.2563   0.0000   0.0287
 -15.000  -0.6968   0.03379   0.03088  -0.1608  0.5370  0.0037  -13.9983   0.0000  -0.0072
 -14.500  -0.6910   0.02835   0.02535  -0.1657  0.5316  0.0038  -13.6722   0.0000  -0.0146
 -14.000  -0.6881   0.02434   0.02097  -0.1679  0.4242  0.0038  -13.3408   0.0000  -0.0173
 -13.500  -0.6467   0.02141   0.01793  -0.1741  0.4015  0.0038  -12.6033   0.0000  -0.0420
 -13.000  -0.5918   0.01925   0.01568  -0.1806  0.3998  0.0039  -11.7381   0.0000  -0.0782
 -12.500  -0.5364   0.01989   0.01631  -0.1803  0.3622  0.0039  -10.7701   0.0000  -0.1096
 -11.500  -0.4269   0.01008   0.00515  -0.1952  0.3395  0.0041  -9.5449   0.0000  -0.2333
 -11.000  -0.3673   0.00963   0.00466  -0.1964  0.3375  0.0042  -8.6957   0.0000  -0.3129
 -10.500  -0.3097   0.00939   0.00425  -0.1972  0.2845  0.0043  -7.9256   0.0000  -0.4176
 -10.000  -0.2510   0.00912   0.00386  -0.1980  0.2455  0.0043  -7.1932   0.0000  -0.5744
  -4.500   0.4058   0.00764   0.00184  -0.2067  0.1376  0.0045  -2.2132   0.0000   0.7679
  -4.000   0.4649   0.00763   0.00182  -0.2072  0.1319  0.0045  -1.9440   0.0000   0.7023
  -3.000   0.5827   0.00765   0.00182  -0.2083  0.1226  0.0089  -1.3814   0.0000   0.6111
  -2.500   0.6408   0.00775   0.00188  -0.2088  0.1036  0.0137  -1.1243   0.0000   0.5782
  -2.000   0.6985   0.00785   0.00192  -0.2091  0.0974  0.0138  -0.9473   0.0000   0.5507
  -1.500   0.7565   0.00793   0.00197  -0.2095  0.0941  0.0150  -0.9963   0.0000   0.5274
  -1.000   0.8143   0.00802   0.00204  -0.2098  0.0877  0.0155  -1.0482   0.0000   0.5073
  -0.500   0.8720   0.00811   0.00213  -0.2102  0.0843  0.0158  -1.1005   0.0000   0.4899
   0.000   0.9294   0.00822   0.00222  -0.2104  0.0837  0.0160  -1.1529   0.0000   0.4746
   0.500   0.9866   0.00833   0.00233  -0.2107  0.0830  0.0163  -1.2059   0.0000   0.4610
   1.000   1.0438   0.00844   0.00244  -0.2110  0.0836  0.0172  -1.2685   0.0000   0.4488
   1.500   1.1004   0.00857   0.00257  -0.2112  0.0831  0.0194  -1.3431   0.0000   0.4379
   2.000   1.1567   0.00873   0.00273  -0.2113  0.0819  0.0260  -1.4186   0.0000   0.4280
   2.500   1.2080   0.00930   0.00315  -0.2104  0.0379  0.0382  -1.5025   0.0000   0.4188
   3.000   1.2630   0.00952   0.00336  -0.2104  0.0367  0.0475  -1.6106   0.0000   0.4104
   4.000   1.3692   0.01023   0.00398  -0.2095  0.0170  0.0671  -1.8474   0.0000   0.3954
   4.500   1.4198   0.01075   0.00446  -0.2086  0.0040  0.0785  -2.0251   0.0000   0.3885
   5.000   1.4724   0.01109   0.00481  -0.2081  0.0031  0.1033  -2.2031   0.0000   0.3822
   5.500   1.5247   0.01143   0.00518  -0.2076  0.0023  0.1456  -2.3856   0.0000   0.3763
   6.000   1.5782   0.01173   0.00561  -0.2075  0.0014  0.2577  -2.5741   0.0000   0.3708
   6.500   1.6295   0.01210   0.00603  -0.2069  0.0013  0.3086  -2.7642   0.0000   0.3655
   7.000   1.6801   0.01251   0.00650  -0.2062  0.0013  0.3677  -2.9574   0.0000   0.3604
   7.500   1.7302   0.01293   0.00702  -0.2055  0.0012  0.4521  -3.1543   0.0000   0.3556
   8.000   1.7748   0.01349   0.00752  -0.2036  0.0012  0.4131  -3.3452   0.0000   0.3506
   8.500   1.8218   0.01399   0.00812  -0.2023  0.0012  0.4905  -3.5442   0.0000   0.3460
   9.000   1.8628   0.01460   0.00874  -0.1998  0.0012  0.4994  -3.7623   0.0000   0.3413
   9.500   1.8943   0.01527   0.00945  -0.1954  0.0012  0.5230  -3.9971   0.0000   0.3363
  10.000   1.9273   0.01605   0.01028  -0.1916  0.0011  0.5586  -4.3630   0.0000   0.3316
  10.500   1.9590   0.01695   0.01123  -0.1877  0.0011  0.5824  -4.8599   0.0000   0.3270
  11.000   1.9898   0.01798   0.01234  -0.1839  0.0011  0.6276  -5.3728   0.0000   0.3227
  11.500   2.0182   0.01920   0.01361  -0.1799  0.0011  0.6584  -5.8920   0.0000   0.3184
  12.000   2.0449   0.02062   0.01511  -0.1759  0.0011  0.6913  -6.4192   0.0000   0.3142
  12.500   2.0698   0.02225   0.01680  -0.1720  0.0010  0.7187  -6.9772   0.0000   0.3103
  13.000   2.0923   0.02415   0.01879  -0.1682  0.0010  0.7644  -7.5228   0.0000   0.3064
  13.500   2.1151   0.02632   0.02109  -0.1649  0.0009  0.8307  -8.0863   0.0000   0.3029
  14.000   2.1381   0.02872   0.02373  -0.1621  0.0009  1.0000  -8.6688   0.0000   0.2996
  14.500   2.1545   0.03156   0.02663  -0.1587  0.0009  1.0000  -9.2197   0.0000   0.2962
  15.000   2.1688   0.03477   0.02989  -0.1554  0.0009  1.0000  -9.7680   0.0000   0.2930
  15.500   2.1806   0.03837   0.03356  -0.1524  0.0008  1.0000  -10.3097   0.0000   0.2900
  16.000   2.1885   0.04241   0.03766  -0.1494  0.0008  1.0000  -10.8340   0.0000   0.2871
  16.500   2.1944   0.04700   0.04233  -0.1469  0.0008  1.0000  -11.3528   0.0000   0.2845
  17.000   2.1994   0.05197   0.04738  -0.1447  0.0008  1.0000  -11.8727   0.0000   0.2820
  17.500   2.2030   0.05731   0.05279  -0.1429  0.0008  1.0000  -12.3897   0.0000   0.2797
  18.000   2.2075   0.06262   0.05818  -0.1415  0.0007  1.0000  -12.9252   0.0000   0.2775
  18.500   2.2038   0.06919   0.06485  -0.1404  0.0007  1.0000  -13.3933   0.0000   0.2757
  19.000   2.1969   0.07630   0.07206  -0.1398  0.0007  1.0000  -13.8341   0.0000   0.2742
  19.500   2.1872   0.08361   0.07948  -0.1395  0.0007  1.0000  -14.2502   0.0000   0.2728
  20.000   2.1761   0.09146   0.08745  -0.1397  0.0007  1.0000  -14.6519   0.0000   0.2717


