XFLR5 v6.02 Beta

 Calculated polar for: WORTMANN FX 63-137

 1 1 Reynolds number fixed          Mach number fixed         

 xtrf =   1.000 (top)        1.000 (bottom)
 Mach =   0.000     Re =    44.250 e 6     Ncrit =   9.000

  alpha     CL        CD       CDp       CM    Top Xtr Bot Xtr   Cpmin    Chinge    XCp    
 ------- -------- --------- --------- -------- ------- ------- -------- --------- ---------
 -24.000  -0.4524   0.22692   0.22459  -0.0443  0.3380  0.0014  -6.5866   0.0000   0.1026
 -22.000  -1.1529   0.06316   0.06005  -0.1439  0.4808  0.0017  -26.0476   0.0000   0.0876
 -21.500  -1.2071   0.04980   0.04656  -0.1544  0.4845  0.0017  -26.7678   0.0000   0.0868
 -21.000  -1.2357   0.04036   0.03700  -0.1619  0.4745  0.0017  -26.9377   0.0000   0.0856
 -20.500  -1.2500   0.03319   0.02972  -0.1676  0.4667  0.0017  -26.8076   0.0000   0.0844
 -20.000  -1.2461   0.02841   0.02489  -0.1711  0.4660  0.0018  -26.3379   0.0000   0.0826
 -19.500  -1.2385   0.02397   0.02038  -0.1743  0.4658  0.0018  -25.8034   0.0000   0.0806
 -19.000  -1.2222   0.02074   0.01711  -0.1759  0.4657  0.0019  -25.1134   0.0000   0.0787
 -18.500  -1.1954   0.01788   0.01420  -0.1789  0.4655  0.0019  -24.2971   0.0000   0.0740
 -18.000  -1.1486   0.01554   0.01172  -0.1845  0.4196  0.0020  -23.2421   0.0000   0.0638
 -17.500  -1.0966   0.01420   0.01023  -0.1878  0.3507  0.0021  -22.1130   0.0000   0.0538
 -17.000  -1.0433   0.01326   0.00924  -0.1895  0.3407  0.0022  -20.9714   0.0000   0.0440
 -16.500  -0.9886   0.01244   0.00838  -0.1909  0.3385  0.0023  -19.8361   0.0000   0.0330
 -16.000  -0.9327   0.01171   0.00762  -0.1922  0.3377  0.0025  -18.7145   0.0000   0.0204
 -15.500  -0.8760   0.01105   0.00693  -0.1935  0.3376  0.0026  -17.6105   0.0000   0.0059
 -15.000  -0.8194   0.01050   0.00632  -0.1945  0.3130  0.0028  -16.5365   0.0000  -0.0104
 -14.000  -0.7049   0.00959   0.00524  -0.1963  0.2421  0.0031  -14.4617   0.0000  -0.0515
 -13.500  -0.6464   0.00919   0.00480  -0.1973  0.2239  0.0032  -13.5372   0.0000  -0.0785
 -13.000  -0.5873   0.00880   0.00437  -0.1983  0.2216  0.0034  -12.6358   0.0000  -0.1114
 -12.500  -0.5287   0.00849   0.00400  -0.1991  0.1923  0.0036  -11.7631   0.0000  -0.1511
 -12.000  -0.4695   0.00821   0.00367  -0.2000  0.1700  0.0038  -10.9122   0.0000  -0.2015
 -11.500  -0.4099   0.00794   0.00337  -0.2009  0.1700  0.0039  -10.0834   0.0000  -0.2673
 -11.000  -0.3502   0.00770   0.00311  -0.2018  0.1697  0.0039  -9.2860   0.0000  -0.3556
 -10.500  -0.2905   0.00749   0.00288  -0.2026  0.1691  0.0040  -8.5169   0.0000  -0.4806
  -9.500  -0.1714   0.00718   0.00248  -0.2041  0.1426  0.0041  -7.0706   0.0000  -0.9892
  -9.000  -0.1117   0.00704   0.00230  -0.2048  0.1324  0.0041  -6.3916   0.0000  -1.6521
  -8.500  -0.0519   0.00691   0.00215  -0.2056  0.1272  0.0041  -5.7383   0.0000  -3.8501
  -8.000   0.0080   0.00679   0.00202  -0.2064  0.1240  0.0042  -5.1143   0.0000  27.0217
  -7.500   0.0678   0.00669   0.00190  -0.2071  0.1237  0.0042  -4.5199   0.0000   3.3962
  -7.000   0.1276   0.00661   0.00180  -0.2078  0.1235  0.0043  -4.0491   0.0000   1.9237
  -6.500   0.1873   0.00654   0.00171  -0.2085  0.1232  0.0043  -3.6576   0.0000   1.3913
  -6.000   0.2470   0.00648   0.00164  -0.2092  0.1228  0.0043  -3.2815   0.0000   1.1166
  -5.000   0.3652   0.00647   0.00156  -0.2103  0.1009  0.0044  -2.5774   0.0000   0.8368
  -4.500   0.4243   0.00647   0.00153  -0.2109  0.0980  0.0045  -2.2481   0.0000   0.7553
  -4.000   0.4833   0.00648   0.00152  -0.2114  0.0896  0.0045  -1.9347   0.0000   0.6938
  -3.500   0.5423   0.00649   0.00152  -0.2120  0.0854  0.0046  -1.6363   0.0000   0.6456
  -3.000   0.6013   0.00651   0.00153  -0.2125  0.0843  0.0050  -1.3536   0.0000   0.6069
  -2.500   0.6600   0.00655   0.00155  -0.2130  0.0841  0.0047  -1.0857   0.0000   0.5751
  -2.000   0.7186   0.00659   0.00158  -0.2135  0.0837  0.0056  -0.9599   0.0000   0.5484
  -1.500   0.7754   0.00678   0.00169  -0.2136  0.0565  0.0068  -1.0091   0.0000   0.5259
  -1.000   0.8334   0.00686   0.00175  -0.2140  0.0507  0.0079  -1.0614   0.0000   0.5064
  -0.500   0.8911   0.00696   0.00183  -0.2143  0.0478  0.0087  -1.1137   0.0000   0.4893
   0.000   0.9485   0.00708   0.00193  -0.2145  0.0451  0.0094  -1.1663   0.0000   0.4743
   1.000   1.0634   0.00729   0.00213  -0.2151  0.0452  0.0170  -1.2854   0.0000   0.4490
   1.500   1.1202   0.00742   0.00225  -0.2153  0.0440  0.0172  -1.3609   0.0000   0.4382
   2.000   1.1768   0.00757   0.00238  -0.2155  0.0421  0.0194  -1.4370   0.0000   0.4284
   2.500   1.2294   0.00806   0.00277  -0.2148  0.0023  0.0373  -1.5243   0.0000   0.4193
   3.500   1.3399   0.00849   0.00316  -0.2147  0.0014  0.0417  -1.7559   0.0000   0.4034
   4.000   1.3946   0.00873   0.00339  -0.2146  0.0015  0.0451  -1.8988   0.0000   0.3962
   4.500   1.4490   0.00898   0.00363  -0.2144  0.0013  0.0517  -2.0767   0.0000   0.3896
   5.000   1.5029   0.00924   0.00389  -0.2141  0.0013  0.0670  -2.2590   0.0000   0.3833
   5.500   1.5562   0.00953   0.00416  -0.2138  0.0013  0.0800  -2.4451   0.0000   0.3774
   6.000   1.6094   0.00982   0.00448  -0.2135  0.0012  0.1206  -2.6357   0.0000   0.3719
   6.500   1.6618   0.01014   0.00480  -0.2130  0.0012  0.1459  -2.8298   0.0000   0.3666
   7.000   1.7132   0.01049   0.00514  -0.2124  0.0012  0.1566  -3.0267   0.0000   0.3615
   7.500   1.7640   0.01085   0.00551  -0.2116  0.0012  0.1707  -3.2270   0.0000   0.3567
   8.000   1.8135   0.01125   0.00589  -0.2107  0.0012  0.1671  -3.4294   0.0000   0.3520
   8.500   1.8630   0.01165   0.00632  -0.2098  0.0012  0.2162  -3.6357   0.0000   0.3475
   9.000   1.9113   0.01209   0.00678  -0.2087  0.0012  0.2646  -3.9026   0.0000   0.3431
   9.500   1.9585   0.01255   0.00727  -0.2074  0.0012  0.3073  -4.2441   0.0000   0.3389
  10.000   2.0049   0.01303   0.00783  -0.2061  0.0011  0.3922  -4.8199   0.0000   0.3348
  10.500   2.0474   0.01359   0.00841  -0.2039  0.0011  0.4033  -5.4040   0.0000   0.3306
  11.500   2.1061   0.01497   0.00982  -0.1945  0.0011  0.4339  -6.4934   0.0000   0.3214
  12.000   2.1358   0.01583   0.01070  -0.1901  0.0010  0.4343  -7.0724   0.0000   0.3171
  12.500   2.1645   0.01682   0.01173  -0.1859  0.0010  0.4664  -7.6661   0.0000   0.3129
  13.000   2.1925   0.01797   0.01292  -0.1819  0.0010  0.5066  -8.2754   0.0000   0.3089
  13.500   2.2182   0.01930   0.01428  -0.1777  0.0009  0.5197  -8.8886   0.0000   0.3049
  14.000   2.2415   0.02088   0.01592  -0.1735  0.0009  0.5493  -9.5026   0.0000   0.3011
  14.500   2.2619   0.02273   0.01785  -0.1693  0.0009  0.5963  -10.1119   0.0000   0.2974
  15.000   2.2813   0.02489   0.02006  -0.1654  0.0008  0.6293  -10.7311   0.0000   0.2939
  15.500   2.2989   0.02736   0.02260  -0.1616  0.0008  0.6598  -11.3525   0.0000   0.2905
  19.000   2.2951   0.06475   0.06096  -0.1418  0.0035  1.0000  -14.8275   0.0000   0.2724
  19.500   2.2852   0.07210   0.06840  -0.1408  0.0037  1.0000  -15.2614   0.0000   0.2707


