XFLR5 v6.02 Beta

 Calculated polar for: WORTMANN FX 63-137

 1 1 Reynolds number fixed          Mach number fixed         

 xtrf =   1.000 (top)        1.000 (bottom)
 Mach =   0.000     Re =    58.250 e 6     Ncrit =   9.000

  alpha     CL        CD       CDp       CM    Top Xtr Bot Xtr   Cpmin    Chinge    XCp    
 ------- -------- --------- --------- -------- ------- ------- -------- --------- ---------
 -22.500  -1.1788   0.06554   0.06246  -0.1430  0.4313  0.0014  -26.9040   0.0000   0.0900
 -22.000  -1.2435   0.05098   0.04777  -0.1545  0.4364  0.0014  -27.8331   0.0000   0.0895
 -21.500  -1.2751   0.04126   0.03792  -0.1622  0.4307  0.0014  -28.0568   0.0000   0.0886
 -21.000  -1.2831   0.03488   0.03144  -0.1670  0.4235  0.0014  -27.8083   0.0000   0.0872
 -20.500  -1.2883   0.02910   0.02559  -0.1714  0.4205  0.0015  -27.4876   0.0000   0.0860
 -20.000  -1.2784   0.02504   0.02147  -0.1742  0.4163  0.0015  -26.9003   0.0000   0.0842
 -19.500  -1.2646   0.02138   0.01775  -0.1765  0.4117  0.0015  -26.2463   0.0000   0.0821
 -19.000  -1.2459   0.01848   0.01481  -0.1781  0.4064  0.0016  -25.5092   0.0000   0.0799
 -18.500  -1.2019   0.01606   0.01234  -0.1831  0.4021  0.0016  -24.4617   0.0000   0.0715
 -18.000  -1.1488   0.01434   0.01048  -0.1880  0.3458  0.0017  -23.3076   0.0000   0.0609
 -17.000  -1.0428   0.01261   0.00865  -0.1909  0.3107  0.0019  -20.9974   0.0000   0.0426
 -16.500  -0.9877   0.01191   0.00789  -0.1921  0.3023  0.0020  -19.8543   0.0000   0.0316
 -16.000  -0.9317   0.01128   0.00722  -0.1932  0.2953  0.0021  -18.7272   0.0000   0.0191
 -15.500  -0.8748   0.01070   0.00661  -0.1943  0.2909  0.0022  -17.6185   0.0000   0.0046
 -15.000  -0.8174   0.01017   0.00605  -0.1954  0.2783  0.0023  -16.5328   0.0000  -0.0121
 -14.500  -0.7605   0.00975   0.00554  -0.1962  0.2307  0.0025  -15.4839   0.0000  -0.0310
 -14.000  -0.7021   0.00930   0.00506  -0.1972  0.2221  0.0026  -14.4485   0.0000  -0.0540
 -13.500  -0.6433   0.00891   0.00464  -0.1982  0.2209  0.0027  -13.5239   0.0000  -0.0815
 -12.500  -0.5257   0.00824   0.00386  -0.2000  0.1697  0.0031  -11.7594   0.0000  -0.1550
 -10.500  -0.2872   0.00721   0.00271  -0.2035  0.1438  0.0040  -8.5148   0.0000  -0.4920
 -10.000  -0.2276   0.00705   0.00251  -0.2043  0.1384  0.0040  -7.7749   0.0000  -0.6869
  -9.500  -0.1678   0.00689   0.00234  -0.2050  0.1331  0.0041  -7.0640   0.0000  -1.0216
  -9.000  -0.1080   0.00676   0.00218  -0.2058  0.1241  0.0041  -6.3827   0.0000  -1.7279
  -8.500  -0.0481   0.00663   0.00204  -0.2066  0.1238  0.0041  -5.7288   0.0000  -4.1938
  -8.000   0.0118   0.00652   0.00191  -0.2073  0.1235  0.0042  -5.1044   0.0000  18.4584
  -7.500   0.0716   0.00643   0.00180  -0.2080  0.1232  0.0042  -4.5098   0.0000   3.2429
  -6.500   0.1911   0.00628   0.00163  -0.2094  0.1227  0.0043  -3.6527   0.0000   1.3736
  -6.000   0.2501   0.00628   0.00158  -0.2099  0.1018  0.0043  -3.2785   0.0000   1.1089
  -5.500   0.3094   0.00626   0.00153  -0.2105  0.0989  0.0044  -2.9179   0.0000   0.9447
  -5.000   0.3687   0.00624   0.00149  -0.2111  0.0962  0.0044  -2.5724   0.0000   0.8334
  -4.500   0.4280   0.00624   0.00147  -0.2117  0.0921  0.0045  -2.2422   0.0000   0.7529
  -4.000   0.4871   0.00624   0.00146  -0.2123  0.0844  0.0045  -1.9279   0.0000   0.6921
  -3.500   0.5462   0.00625   0.00146  -0.2128  0.0843  0.0045  -1.6293   0.0000   0.6444
  -3.000   0.6051   0.00627   0.00147  -0.2134  0.0841  0.0046  -1.3465   0.0000   0.6060
  -2.500   0.6639   0.00630   0.00149  -0.2139  0.0839  0.0046  -1.0789   0.0000   0.5745
  -2.000   0.7212   0.00646   0.00157  -0.2140  0.0595  0.0051  -0.9614   0.0000   0.5482
  -1.500   0.7792   0.00655   0.00162  -0.2144  0.0481  0.0060  -1.0116   0.0000   0.5256
  -1.000   0.8371   0.00663   0.00169  -0.2148  0.0454  0.0070  -1.0638   0.0000   0.5062
  -0.500   0.8950   0.00672   0.00177  -0.2151  0.0430  0.0077  -1.1164   0.0000   0.4892
   0.000   0.9527   0.00682   0.00185  -0.2154  0.0407  0.0083  -1.1692   0.0000   0.4743
   0.500   1.0103   0.00692   0.00195  -0.2158  0.0385  0.0154  -1.2242   0.0000   0.4610
   1.000   1.0676   0.00702   0.00205  -0.2160  0.0415  0.0170  -1.2891   0.0000   0.4491
   1.500   1.1246   0.00715   0.00216  -0.2163  0.0405  0.0171  -1.3647   0.0000   0.4383
   2.500   1.2342   0.00775   0.00265  -0.2158  0.0017  0.0372  -1.5293   0.0000   0.4194
   3.500   1.3451   0.00817   0.00303  -0.2158  0.0013  0.0397  -1.7625   0.0000   0.4035
   4.000   1.3999   0.00840   0.00324  -0.2157  0.0013  0.0428  -1.9079   0.0000   0.3964
   4.500   1.4544   0.00864   0.00347  -0.2155  0.0013  0.0488  -2.0864   0.0000   0.3898
   5.500   1.5622   0.00917   0.00398  -0.2150  0.0013  0.0752  -2.4564   0.0000   0.3777
   6.000   1.6155   0.00945   0.00427  -0.2147  0.0012  0.1107  -2.6477   0.0000   0.3721
   6.500   1.6681   0.00976   0.00458  -0.2142  0.0012  0.1229  -2.8425   0.0000   0.3668
   7.000   1.7201   0.01008   0.00490  -0.2137  0.0012  0.1461  -3.0409   0.0000   0.3618
   7.500   1.7711   0.01044   0.00524  -0.2130  0.0012  0.1521  -3.2421   0.0000   0.3569
   8.000   1.8213   0.01081   0.00561  -0.2122  0.0012  0.1484  -3.4461   0.0000   0.3523
   9.500   1.9675   0.01206   0.00690  -0.2091  0.0012  0.2507  -4.2961   0.0000   0.3392
  10.000   2.0146   0.01252   0.00741  -0.2078  0.0011  0.3316  -4.8791   0.0000   0.3352
  10.500   2.0593   0.01303   0.00796  -0.2061  0.0011  0.3692  -5.4791   0.0000   0.3311
  11.000   2.0994   0.01361   0.00854  -0.2035  0.0011  0.3706  -6.0831   0.0000   0.3269
  11.500   2.1245   0.01427   0.00921  -0.1979  0.0011  0.3769  -6.6162   0.0000   0.3221
  12.000   2.1538   0.01505   0.01000  -0.1933  0.0010  0.3786  -7.1978   0.0000   0.3177
  12.500   2.1837   0.01594   0.01090  -0.1891  0.0010  0.3912  -7.8042   0.0000   0.3136
  13.000   2.2123   0.01696   0.01201  -0.1850  0.0010  0.4606  -8.4229   0.0000   0.3095
  13.500   2.2383   0.01820   0.01328  -0.1807  0.0009  0.4905  -9.0437   0.0000   0.3055
  14.500   2.2843   0.02129   0.01645  -0.1721  0.0008  0.5303  -10.2964   0.0000   0.2979
  15.000   2.2617   0.02619   0.02156  -0.1627  0.0015  0.5497  -10.5169   0.0000   0.2933
  15.500   2.2728   0.02922   0.02468  -0.1584  0.0019  0.5737  -11.0951   0.0000   0.2899
  16.000   2.2930   0.03180   0.02732  -0.1556  0.0023  0.6164  -11.7620   0.0000   0.2868
  16.500   2.3012   0.03551   0.03110  -0.1521  0.0027  0.6378  -12.3224   0.0000   0.2837
  17.500   2.3123   0.04394   0.03971  -0.1460  0.0036  0.6906  -13.4255   0.0000   0.2781
  18.000   2.3137   0.04915   0.04500  -0.1435  0.0040  0.7189  -13.9526   0.0000   0.2756
  18.500   2.3130   0.05496   0.05092  -0.1417  0.0042  0.7604  -14.4681   0.0000   0.2734
  19.000   2.3100   0.06139   0.05748  -0.1404  0.0044  0.8042  -14.9689   0.0000   0.2715
  19.500   2.3048   0.06838   0.06459  -0.1397  0.0045  0.8519  -15.4540   0.0000   0.2698


