XFLR5 v6.02 Beta

 Calculated polar for: WORTMANN FX 63-137

 1 1 Reynolds number fixed          Mach number fixed         

 xtrf =   1.000 (top)        1.000 (bottom)
 Mach =   0.000     Re =    71.000 e 6     Ncrit =   9.000

  alpha     CL        CD       CDp       CM    Top Xtr Bot Xtr   Cpmin    Chinge    XCp    
 ------- -------- --------- --------- -------- ------- ------- -------- --------- ---------
 -23.000  -1.1760   0.07182   0.06882  -0.1388  0.4022  0.0014  -27.1802   0.0000   0.0917
 -22.500  -1.2675   0.05375   0.05056  -0.1531  0.4021  0.0014  -28.6705   0.0000   0.0919
 -22.000  -1.2906   0.04518   0.04190  -0.1596  0.4019  0.0014  -28.7391   0.0000   0.0908
 -21.500  -1.3126   0.03679   0.03342  -0.1664  0.4019  0.0014  -28.7568   0.0000   0.0896
 -21.000  -1.3151   0.03129   0.02785  -0.1704  0.4017  0.0014  -28.3880   0.0000   0.0883
 -20.500  -1.3143   0.02627   0.02276  -0.1741  0.4014  0.0014  -27.9489   0.0000   0.0869
 -19.500  -0.3070   0.17721   0.17466  -0.0791  0.1692  0.0015  -5.5827   0.0000  -0.0620
 -19.000  -0.2900   0.17175   0.16919  -0.0824  0.1691  0.0016  -5.3956   0.0000  -0.0895
 -18.000  -1.1499   0.01369   0.00985  -0.1893  0.3088  0.0015  -23.3525   0.0000   0.0599
 -17.500  -1.0969   0.01286   0.00897  -0.1907  0.2991  0.0016  -22.1809   0.0000   0.0513
 -17.000  -1.0423   0.01214   0.00820  -0.1919  0.2918  0.0017  -21.0148   0.0000   0.0415
 -16.500  -0.9867   0.01149   0.00753  -0.1930  0.2847  0.0018  -19.8621   0.0000   0.0304
 -16.000  -0.9302   0.01090   0.00691  -0.1941  0.2787  0.0019  -18.7275   0.0000   0.0177
 -15.500  -0.8730   0.01036   0.00634  -0.1952  0.2784  0.0020  -17.6142   0.0000   0.0031
 -15.000  -0.8164   0.00993   0.00583  -0.1960  0.2405  0.0021  -16.5361   0.0000  -0.0132
 -14.500  -0.7585   0.00948   0.00535  -0.1969  0.2218  0.0022  -15.4739   0.0000  -0.0327
 -14.000  -0.6999   0.00907   0.00491  -0.1979  0.2212  0.0023  -14.4370   0.0000  -0.0559
 -13.500  -0.6417   0.00873   0.00451  -0.1987  0.1933  0.0024  -13.5160   0.0000  -0.0832
 -13.000  -0.5828   0.00838   0.00413  -0.1996  0.1860  0.0026  -12.6195   0.0000  -0.1165
 -12.000  -0.4643   0.00778   0.00345  -0.2014  0.1445  0.0030  -10.9023   0.0000  -0.2096
 -11.500  -0.4045   0.00748   0.00313  -0.2024  0.1457  0.0034  -10.0783   0.0000  -0.2780
 -11.000  -0.3447   0.00723   0.00285  -0.2033  0.1419  0.0036  -9.2817   0.0000  -0.3698
 -10.500  -0.2849   0.00702   0.00261  -0.2041  0.1371  0.0039  -8.5105   0.0000  -0.5003
 -10.000  -0.2250   0.00685   0.00242  -0.2049  0.1321  0.0040  -7.7684   0.0000  -0.7003
  -9.500  -0.1652   0.00670   0.00225  -0.2057  0.1270  0.0041  -7.0566   0.0000  -1.0454
  -9.000  -0.1054   0.00656   0.00210  -0.2065  0.1237  0.0041  -6.3748   0.0000  -1.7828
  -8.500  -0.0455   0.00644   0.00196  -0.2072  0.1235  0.0041  -5.7207   0.0000  -4.4623
  -8.000   0.0144   0.00634   0.00184  -0.2079  0.1232  0.0042  -5.0963   0.0000  15.2053
  -7.500   0.0742   0.00625   0.00174  -0.2087  0.1228  0.0042  -4.5017   0.0000   3.1469
  -6.500   0.1930   0.00616   0.00158  -0.2099  0.1012  0.0043  -3.6510   0.0000   1.3647
  -6.000   0.2525   0.00613   0.00152  -0.2105  0.0983  0.0043  -3.2748   0.0000   1.1029
  -5.500   0.3119   0.00610   0.00148  -0.2111  0.0957  0.0044  -2.9137   0.0000   0.9410
  -5.000   0.3713   0.00608   0.00144  -0.2117  0.0929  0.0044  -2.5680   0.0000   0.8309
  -4.500   0.4306   0.00607   0.00142  -0.2123  0.0863  0.0044  -2.2378   0.0000   0.7513
  -4.000   0.4898   0.00607   0.00141  -0.2129  0.0842  0.0045  -1.9231   0.0000   0.6909
  -3.500   0.5489   0.00608   0.00141  -0.2134  0.0841  0.0045  -1.6244   0.0000   0.6436
  -3.000   0.6078   0.00610   0.00142  -0.2140  0.0840  0.0046  -1.3416   0.0000   0.6054
  -2.500   0.6666   0.00613   0.00144  -0.2145  0.0838  0.0046  -1.0741   0.0000   0.5740
  -2.000   0.7235   0.00631   0.00153  -0.2146  0.0474  0.0048  -0.9628   0.0000   0.5479
  -1.500   0.7818   0.00639   0.00158  -0.2150  0.0444  0.0055  -1.0133   0.0000   0.5254
  -1.000   0.8399   0.00646   0.00165  -0.2153  0.0421  0.0064  -1.0657   0.0000   0.5061
  -0.500   0.8978   0.00655   0.00172  -0.2157  0.0399  0.0071  -1.1184   0.0000   0.4891
   0.000   0.9555   0.00664   0.00180  -0.2160  0.0382  0.0076  -1.1713   0.0000   0.4742
   0.500   1.0131   0.00674   0.00189  -0.2163  0.0381  0.0095  -1.2264   0.0000   0.4610
   1.000   1.0706   0.00684   0.00198  -0.2167  0.0391  0.0169  -1.2917   0.0000   0.4491
   1.500   1.1277   0.00696   0.00209  -0.2169  0.0384  0.0171  -1.3674   0.0000   0.4383
   2.000   1.1829   0.00722   0.00229  -0.2168  0.0244  0.0202  -1.4422   0.0000   0.4285
   3.500   1.3486   0.00795   0.00293  -0.2165  0.0013  0.0387  -1.7670   0.0000   0.4037
   4.000   1.4036   0.00817   0.00314  -0.2164  0.0013  0.0412  -1.9141   0.0000   0.3966
   4.500   1.4582   0.00841   0.00336  -0.2163  0.0013  0.0469  -2.0931   0.0000   0.3899
   5.000   1.5126   0.00865   0.00360  -0.2161  0.0013  0.0664  -2.2767   0.0000   0.3837
   5.500   1.5663   0.00892   0.00386  -0.2158  0.0013  0.0722  -2.4641   0.0000   0.3778
   6.000   1.6198   0.00919   0.00414  -0.2155  0.0012  0.1043  -2.6560   0.0000   0.3723
   6.500   1.6724   0.00949   0.00443  -0.2151  0.0012  0.1161  -2.8512   0.0000   0.3670
   8.500   1.8765   0.01089   0.00580  -0.2123  0.0012  0.1547  -3.6654   0.0000   0.3480
   9.000   1.9259   0.01129   0.00621  -0.2115  0.0012  0.2100  -3.9448   0.0000   0.3437
  10.500   2.0665   0.01266   0.00765  -0.2075  0.0011  0.3288  -5.5255   0.0000   0.3314
  11.000   2.1091   0.01321   0.00821  -0.2053  0.0011  0.3385  -6.1458   0.0000   0.3273
  11.500   2.1392   0.01380   0.00883  -0.2007  0.0011  0.3691  -6.7137   0.0000   0.3228
  12.500   2.1965   0.01537   0.01042  -0.1914  0.0010  0.3695  -7.8965   0.0000   0.3140
  13.000   2.2242   0.01635   0.01142  -0.1869  0.0009  0.3968  -8.5129   0.0000   0.3099
  14.000   2.2435   0.02075   0.01607  -0.1734  0.0016  0.4632  -9.4693   0.0000   0.3010
  14.500   2.2581   0.02282   0.01819  -0.1683  0.0017  0.4678  -10.0345   0.0000   0.2971
  15.000   2.2774   0.02496   0.02038  -0.1644  0.0022  0.4997  -10.6821   0.0000   0.2936
  15.500   2.2932   0.02756   0.02304  -0.1604  0.0027  0.5320  -11.2844   0.0000   0.2901
  16.000   2.3061   0.03058   0.02613  -0.1567  0.0031  0.5613  -11.8743   0.0000   0.2869
  16.500   2.3162   0.03401   0.02962  -0.1531  0.0035  0.5816  -12.4520   0.0000   0.2837
  17.000   2.3242   0.03790   0.03360  -0.1499  0.0038  0.6213  -13.0230   0.0000   0.2808
  17.500   2.3272   0.04225   0.03803  -0.1466  0.0043  0.6319  -13.5586   0.0000   0.2780
  18.000   2.3297   0.04719   0.04306  -0.1441  0.0045  0.6582  -14.0993   0.0000   0.2755
  18.500   2.3302   0.05269   0.04865  -0.1420  0.0046  0.6889  -14.6314   0.0000   0.2731
  19.000   2.3264   0.05891   0.05497  -0.1403  0.0046  0.7158  -15.1308   0.0000   0.2710
  19.500   2.3335   0.06391   0.06006  -0.1391  0.0047  0.7519  -15.7450   0.0000   0.2689
  20.000   2.3247   0.07121   0.06747  -0.1384  0.0047  0.7914  -16.2060   0.0000   0.2673
  20.500   2.3121   0.07907   0.07545  -0.1382  0.0047  0.8244  -16.6300   0.0000   0.2659
  21.000   2.2941   0.08761   0.08411  -0.1384  0.0047  0.8450  -16.9981   0.0000   0.2648


