XFLR5 v6.02 Beta

 Calculated polar for: WORTMANN FX 63-137

 1 1 Reynolds number fixed          Mach number fixed         

 xtrf =   1.000 (top)        1.000 (bottom)
 Mach =   0.000     Re =    66.250 e 6     Ncrit =   9.000

  alpha     CL        CD       CDp       CM    Top Xtr Bot Xtr   Cpmin    Chinge    XCp    
 ------- -------- --------- --------- -------- ------- ------- -------- --------- ---------
 -22.500  -1.2364   0.05791   0.05475  -0.1495  0.4078  0.0014  -28.0544   0.0000   0.0912
 -22.000  -1.2803   0.04642   0.04315  -0.1585  0.4072  0.0014  -28.5404   0.0000   0.0905
 -21.500  -1.3039   0.03778   0.03440  -0.1655  0.4086  0.0014  -28.5938   0.0000   0.0893
 -21.000  -1.3064   0.03225   0.02881  -0.1695  0.4058  0.0014  -28.2297   0.0000   0.0880
 -20.500  -1.3077   0.02696   0.02345  -0.1735  0.4030  0.0014  -27.8322   0.0000   0.0867
 -20.000  -1.2936   0.02337   0.01981  -0.1758  0.4020  0.0014  -27.1652   0.0000   0.0847
 -19.500  -1.2796   0.02001   0.01641  -0.1774  0.4015  0.0014  -26.4891   0.0000   0.0833
 -19.000  -1.2506   0.01743   0.01378  -0.1801  0.4011  0.0015  -25.6137   0.0000   0.0790
 -18.500  -1.2012   0.01517   0.01147  -0.1858  0.4010  0.0015  -24.4941   0.0000   0.0692
 -17.500  -1.0968   0.01305   0.00914  -0.1903  0.3052  0.0017  -22.1712   0.0000   0.0516
 -17.000  -1.0426   0.01230   0.00835  -0.1916  0.2978  0.0017  -21.0099   0.0000   0.0419
 -16.500  -0.9871   0.01164   0.00765  -0.1927  0.2907  0.0018  -19.8603   0.0000   0.0309
 -16.000  -0.9308   0.01103   0.00702  -0.1938  0.2838  0.0019  -18.7277   0.0000   0.0182
 -15.500  -0.8737   0.01048   0.00644  -0.1949  0.2794  0.0020  -17.6159   0.0000   0.0037
 -15.000  -0.8167   0.01001   0.00592  -0.1958  0.2529  0.0022  -16.5348   0.0000  -0.0128
 -14.500  -0.7592   0.00958   0.00542  -0.1967  0.2222  0.0023  -15.4774   0.0000  -0.0321
 -14.000  -0.7007   0.00915   0.00497  -0.1977  0.2215  0.0024  -14.4409   0.0000  -0.0553
 -13.500  -0.6424   0.00880   0.00457  -0.1985  0.2011  0.0025  -13.5197   0.0000  -0.0825
 -13.000  -0.5834   0.00845   0.00417  -0.1994  0.1905  0.0027  -12.6233   0.0000  -0.1158
 -12.000  -0.4651   0.00784   0.00348  -0.2012  0.1490  0.0031  -10.9061   0.0000  -0.2085
 -11.500  -0.4048   0.00750   0.00315  -0.2023  0.1690  0.0035  -10.0778   0.0000  -0.2773
 -11.000  -0.3454   0.00728   0.00287  -0.2031  0.1443  0.0038  -9.2826   0.0000  -0.3680
 -10.500  -0.2857   0.00709   0.00264  -0.2039  0.1393  0.0039  -8.5120   0.0000  -0.4974
 -10.000  -0.2259   0.00692   0.00245  -0.2047  0.1343  0.0040  -7.7708   0.0000  -0.6956
  -9.500  -0.1661   0.00676   0.00228  -0.2055  0.1292  0.0041  -7.0593   0.0000  -1.0371
  -9.000  -0.1063   0.00663   0.00212  -0.2062  0.1238  0.0041  -6.3776   0.0000  -1.7636
  -8.500  -0.0464   0.00651   0.00199  -0.2070  0.1236  0.0041  -5.7236   0.0000  -4.3664
  -8.000   0.0135   0.00640   0.00187  -0.2077  0.1233  0.0042  -5.0992   0.0000  16.1853
  -7.500   0.0733   0.00631   0.00176  -0.2084  0.1229  0.0042  -4.5046   0.0000   3.1794
  -7.000   0.1330   0.00623   0.00167  -0.2091  0.1227  0.0043  -4.0422   0.0000   1.8649
  -6.500   0.1922   0.00622   0.00160  -0.2097  0.1025  0.0043  -3.6523   0.0000   1.3685
  -6.000   0.2516   0.00618   0.00154  -0.2103  0.0995  0.0043  -3.2761   0.0000   1.1050
  -5.500   0.3110   0.00616   0.00149  -0.2109  0.0968  0.0044  -2.9152   0.0000   0.9423
  -5.000   0.3704   0.00614   0.00146  -0.2115  0.0942  0.0044  -2.5696   0.0000   0.8318
  -4.500   0.4297   0.00613   0.00144  -0.2121  0.0884  0.0044  -2.2393   0.0000   0.7518
  -4.000   0.4889   0.00613   0.00143  -0.2127  0.0843  0.0045  -1.9248   0.0000   0.6913
  -3.500   0.5479   0.00614   0.00143  -0.2132  0.0842  0.0045  -1.6261   0.0000   0.6439
  -3.000   0.6069   0.00616   0.00144  -0.2137  0.0841  0.0046  -1.3433   0.0000   0.6056
  -2.500   0.6657   0.00619   0.00146  -0.2142  0.0838  0.0046  -1.0758   0.0000   0.5742
  -2.000   0.7227   0.00637   0.00154  -0.2144  0.0489  0.0049  -0.9623   0.0000   0.5480
  -1.500   0.7808   0.00644   0.00160  -0.2148  0.0457  0.0056  -1.0127   0.0000   0.5255
  -1.000   0.8389   0.00652   0.00166  -0.2151  0.0432  0.0066  -1.0650   0.0000   0.5061
  -0.500   0.8968   0.00661   0.00174  -0.2155  0.0409  0.0073  -1.1177   0.0000   0.4892
   0.000   0.9545   0.00670   0.00182  -0.2158  0.0388  0.0078  -1.1706   0.0000   0.4742
   0.500   1.0121   0.00680   0.00191  -0.2161  0.0382  0.0097  -1.2256   0.0000   0.4610
   1.000   1.0696   0.00690   0.00201  -0.2165  0.0399  0.0169  -1.2908   0.0000   0.4491
   1.500   1.1266   0.00703   0.00212  -0.2167  0.0390  0.0171  -1.3665   0.0000   0.4383
   2.500   1.2363   0.00762   0.00260  -0.2163  0.0015  0.0371  -1.5315   0.0000   0.4195
   3.500   1.3473   0.00802   0.00297  -0.2162  0.0013  0.0390  -1.7654   0.0000   0.4036
   4.000   1.4023   0.00825   0.00318  -0.2161  0.0013  0.0418  -1.9120   0.0000   0.3965
   4.500   1.4569   0.00849   0.00340  -0.2160  0.0013  0.0475  -2.0908   0.0000   0.3899
   5.500   1.5648   0.00900   0.00390  -0.2155  0.0013  0.0732  -2.4615   0.0000   0.3778
   6.000   1.6183   0.00928   0.00419  -0.2153  0.0012  0.1064  -2.6532   0.0000   0.3722
   6.500   1.6709   0.00958   0.00448  -0.2148  0.0012  0.1184  -2.8482   0.0000   0.3670
   7.500   1.7744   0.01024   0.00513  -0.2137  0.0012  0.1465  -3.2490   0.0000   0.3571
   8.000   1.8249   0.01061   0.00549  -0.2129  0.0012  0.1462  -3.4537   0.0000   0.3524
   8.500   1.8745   0.01100   0.00587  -0.2120  0.0012  0.1601  -3.6611   0.0000   0.3479
   9.000   1.9239   0.01140   0.00629  -0.2111  0.0012  0.2158  -3.9389   0.0000   0.3436
   9.500   1.9719   0.01183   0.00674  -0.2099  0.0012  0.2491  -4.3214   0.0000   0.3394
  10.000   2.0191   0.01228   0.00724  -0.2087  0.0012  0.3078  -4.9064   0.0000   0.3353
  10.500   2.0640   0.01278   0.00776  -0.2070  0.0011  0.3386  -5.5096   0.0000   0.3313
  11.500   2.1339   0.01396   0.00896  -0.1997  0.0011  0.3693  -6.6785   0.0000   0.3225
  12.000   2.1624   0.01471   0.00972  -0.1949  0.0010  0.3694  -7.2574   0.0000   0.3181
  12.500   2.1918   0.01557   0.01058  -0.1905  0.0010  0.3702  -7.8628   0.0000   0.3139
  13.500   2.2479   0.01771   0.01283  -0.1822  0.0009  0.4661  -9.1175   0.0000   0.3058
  14.000   2.2348   0.02124   0.01651  -0.1722  0.0013  0.4669  -9.4128   0.0000   0.3008
  14.500   2.2537   0.02314   0.01848  -0.1678  0.0015  0.4930  -9.9964   0.0000   0.2970
  15.000   2.2690   0.02558   0.02099  -0.1634  0.0019  0.5160  -10.6026   0.0000   0.2934
  15.500   2.2884   0.02795   0.02342  -0.1600  0.0024  0.5515  -11.2445   0.0000   0.2901
  16.000   2.3013   0.03099   0.02652  -0.1562  0.0028  0.5680  -11.8339   0.0000   0.2868
  16.500   2.3120   0.03445   0.03006  -0.1528  0.0032  0.6029  -12.4163   0.0000   0.2838
  17.000   2.3188   0.03838   0.03406  -0.1495  0.0036  0.6294  -12.9761   0.0000   0.2808
  17.500   2.3217   0.04286   0.03863  -0.1464  0.0041  0.6538  -13.5087   0.0000   0.2781
  18.000   2.3241   0.04790   0.04377  -0.1439  0.0043  0.6869  -14.0476   0.0000   0.2755
  18.500   2.3237   0.05348   0.04943  -0.1418  0.0045  0.7082  -14.5689   0.0000   0.2732


