XFLR5 v6.02 Beta

 Calculated polar for: WORTMANN FX 63-137

 1 1 Reynolds number fixed          Mach number fixed         

 xtrf =   1.000 (top)        1.000 (bottom)
 Mach =   0.000     Re =    77.250 e 6     Ncrit =   9.000

  alpha     CL        CD       CDp       CM    Top Xtr Bot Xtr   Cpmin    Chinge    XCp    
 ------- -------- --------- --------- -------- ------- ------- -------- --------- ---------
 -23.000  -1.2226   0.06556   0.06251  -0.1440  0.4014  0.0014  -28.1314   0.0000   0.0927
 -22.500  -1.2825   0.05185   0.04866  -0.1548  0.4014  0.0014  -28.9668   0.0000   0.0921
 -22.000  -1.3163   0.04193   0.03863  -0.1626  0.4013  0.0014  -29.2282   0.0000   0.0913
 -21.000  -1.3314   0.02951   0.02607  -0.1721  0.4013  0.0014  -28.6798   0.0000   0.0888
 -20.500  -1.3218   0.02545   0.02196  -0.1749  0.4012  0.0014  -28.0838   0.0000   0.0872
 -20.000  -1.3092   0.02164   0.01810  -0.1775  0.4011  0.0014  -27.4372   0.0000   0.0853
 -19.500  -1.2939   0.01882   0.01524  -0.1782  0.4010  0.0014  -26.7236   0.0000   0.0844
 -19.000  -1.2549   0.01634   0.01269  -0.1825  0.3712  0.0014  -25.7173   0.0000   0.0777
 -18.500  -1.2007   0.01431   0.01059  -0.1885  0.3657  0.0014  -24.5313   0.0000   0.0668
 -18.000  -1.1503   0.01343   0.00959  -0.1898  0.3000  0.0015  -23.3702   0.0000   0.0595
 -17.500  -1.0968   0.01263   0.00876  -0.1912  0.2919  0.0015  -22.1904   0.0000   0.0508
 -17.000  -1.0419   0.01193   0.00803  -0.1924  0.2847  0.0016  -21.0195   0.0000   0.0410
 -16.500  -0.9861   0.01130   0.00737  -0.1935  0.2787  0.0017  -19.8638   0.0000   0.0299
 -16.000  -0.9295   0.01073   0.00677  -0.1945  0.2782  0.0018  -18.7270   0.0000   0.0171
 -15.500  -0.8723   0.01021   0.00623  -0.1955  0.2779  0.0019  -17.6122   0.0000   0.0025
 -15.000  -0.8157   0.00980   0.00573  -0.1963  0.2285  0.0020  -16.5342   0.0000  -0.0138
 -14.500  -0.7576   0.00936   0.00527  -0.1973  0.2214  0.0021  -15.4698   0.0000  -0.0335
 -13.500  -0.6409   0.00863   0.00445  -0.1990  0.1893  0.0023  -13.5114   0.0000  -0.0840
 -13.000  -0.5819   0.00830   0.00408  -0.1999  0.1790  0.0025  -12.6143   0.0000  -0.1175
 -12.000  -0.4635   0.00771   0.00342  -0.2016  0.1414  0.0028  -10.8975   0.0000  -0.2110
 -11.500  -0.4036   0.00742   0.00310  -0.2026  0.1427  0.0032  -10.0745   0.0000  -0.2796
 -11.000  -0.3438   0.00717   0.00283  -0.2035  0.1391  0.0035  -9.2789   0.0000  -0.3720
 -10.500  -0.2839   0.00695   0.00259  -0.2044  0.1344  0.0038  -8.5088   0.0000  -0.5037
 -10.000  -0.2240   0.00677   0.00238  -0.2052  0.1296  0.0040  -7.7656   0.0000  -0.7060
  -9.500  -0.1641   0.00661   0.00221  -0.2060  0.1247  0.0040  -7.0534   0.0000  -1.0555
  -9.000  -0.1043   0.00648   0.00206  -0.2067  0.1236  0.0041  -6.3713   0.0000  -1.8063
  -8.500  -0.0444   0.00637   0.00193  -0.2075  0.1234  0.0041  -5.7171   0.0000  -4.5823
  -8.000   0.0154   0.00626   0.00181  -0.2082  0.1229  0.0042  -5.0927   0.0000  14.1851
  -7.500   0.0752   0.00618   0.00171  -0.2089  0.1228  0.0042  -4.4980   0.0000   3.1088
  -7.000   0.1345   0.00614   0.00163  -0.2095  0.1024  0.0043  -4.0411   0.0000   1.8503
  -6.500   0.1940   0.00610   0.00156  -0.2101  0.0997  0.0043  -3.6495   0.0000   1.3602
  -6.000   0.2535   0.00606   0.00150  -0.2108  0.0969  0.0043  -3.2730   0.0000   1.1004
  -5.500   0.3130   0.00603   0.00146  -0.2114  0.0944  0.0044  -2.9118   0.0000   0.9394
  -5.000   0.3724   0.00601   0.00143  -0.2120  0.0908  0.0044  -2.5660   0.0000   0.8299
  -4.500   0.4317   0.00600   0.00140  -0.2126  0.0844  0.0044  -2.2358   0.0000   0.7506
  -4.000   0.4909   0.00600   0.00139  -0.2131  0.0842  0.0045  -1.9210   0.0000   0.6904
  -3.500   0.5500   0.00601   0.00139  -0.2137  0.0841  0.0045  -1.6223   0.0000   0.6432
  -3.000   0.6089   0.00603   0.00140  -0.2142  0.0840  0.0046  -1.3395   0.0000   0.6052
  -2.500   0.6677   0.00606   0.00142  -0.2147  0.0838  0.0046  -1.0721   0.0000   0.5739
  -2.000   0.7246   0.00625   0.00151  -0.2148  0.0458  0.0046  -0.9634   0.0000   0.5478
  -1.500   0.7829   0.00632   0.00157  -0.2152  0.0430  0.0053  -1.0141   0.0000   0.5254
  -1.000   0.8410   0.00639   0.00163  -0.2156  0.0408  0.0061  -1.0665   0.0000   0.5060
  -0.500   0.8990   0.00647   0.00170  -0.2160  0.0386  0.0068  -1.1192   0.0000   0.4891
   0.000   0.9567   0.00657   0.00177  -0.2163  0.0382  0.0073  -1.1721   0.0000   0.4742
   0.500   1.0143   0.00667   0.00186  -0.2166  0.0381  0.0091  -1.2273   0.0000   0.4610
   1.000   1.0719   0.00676   0.00196  -0.2169  0.0383  0.0169  -1.2928   0.0000   0.4491
   1.500   1.1289   0.00688   0.00207  -0.2172  0.0382  0.0171  -1.3686   0.0000   0.4384
   2.000   1.1838   0.00718   0.00228  -0.2170  0.0190  0.0198  -1.4430   0.0000   0.4286
   2.500   1.2388   0.00746   0.00254  -0.2168  0.0014  0.0370  -1.5342   0.0000   0.4196
   3.000   1.2946   0.00765   0.00271  -0.2168  0.0013  0.0379  -1.6506   0.0000   0.4113
   3.500   1.3500   0.00786   0.00290  -0.2168  0.0013  0.0384  -1.7689   0.0000   0.4037
   4.000   1.4051   0.00808   0.00310  -0.2167  0.0013  0.0406  -1.9167   0.0000   0.3966
   4.500   1.4597   0.00831   0.00332  -0.2166  0.0013  0.0461  -2.0959   0.0000   0.3900
   5.500   1.5679   0.00881   0.00380  -0.2162  0.0013  0.0709  -2.4673   0.0000   0.3779
   6.000   1.6216   0.00908   0.00408  -0.2159  0.0012  0.1035  -2.6595   0.0000   0.3724
   6.500   1.6743   0.00938   0.00437  -0.2155  0.0012  0.1135  -2.8549   0.0000   0.3671
   7.000   1.7266   0.00969   0.00468  -0.2150  0.0012  0.1248  -3.0542   0.0000   0.3621
   7.500   1.7783   0.01002   0.00500  -0.2144  0.0012  0.1458  -3.2570   0.0000   0.3572
   8.000   1.8290   0.01038   0.00535  -0.2137  0.0012  0.1457  -3.4624   0.0000   0.3526
   8.500   1.8788   0.01076   0.00572  -0.2128  0.0012  0.1492  -3.6706   0.0000   0.3481
   9.000   1.9284   0.01115   0.00613  -0.2119  0.0012  0.2032  -3.9520   0.0000   0.3438
   9.500   1.9771   0.01156   0.00656  -0.2109  0.0012  0.2490  -4.3504   0.0000   0.3396
  10.000   2.0237   0.01202   0.00702  -0.2095  0.0012  0.2654  -4.9347   0.0000   0.3355
  10.500   2.0696   0.01250   0.00754  -0.2081  0.0011  0.3168  -5.5458   0.0000   0.3315
  11.000   2.1125   0.01304   0.00807  -0.2060  0.0011  0.3267  -6.1685   0.0000   0.3275
  11.500   2.1444   0.01363   0.00867  -0.2017  0.0011  0.3339  -6.7488   0.0000   0.3230
  12.000   2.1730   0.01432   0.00937  -0.1968  0.0010  0.3348  -7.3310   0.0000   0.3185
  13.000   2.2297   0.01610   0.01120  -0.1878  0.0009  0.3724  -8.5541   0.0000   0.3101
  13.500   2.2275   0.01878   0.01407  -0.1788  0.0014  0.4335  -8.9151   0.0000   0.3051
  14.000   2.2480   0.02046   0.01580  -0.1740  0.0019  0.4472  -9.5274   0.0000   0.3011
  14.500   2.2679   0.02221   0.01758  -0.1696  0.0021  0.4579  -10.1424   0.0000   0.2973
  15.000   2.2843   0.02446   0.01989  -0.1651  0.0026  0.4878  -10.7390   0.0000   0.2937
  15.500   2.2989   0.02708   0.02258  -0.1610  0.0030  0.5143  -11.3309   0.0000   0.2902
  16.000   2.3114   0.03009   0.02565  -0.1571  0.0035  0.5328  -11.9181   0.0000   0.2869
  17.000   2.3301   0.03727   0.03298  -0.1502  0.0041  0.5869  -13.0745   0.0000   0.2808
  17.500   2.3348   0.04146   0.03725  -0.1471  0.0045  0.6192  -13.6269   0.0000   0.2780
  18.000   2.3367   0.04635   0.04222  -0.1443  0.0046  0.6323  -14.1662   0.0000   0.2754
  18.500   2.3384   0.05161   0.04756  -0.1421  0.0046  0.6582  -14.7124   0.0000   0.2730
  19.000   2.3455   0.05642   0.05245  -0.1405  0.0047  0.6900  -15.3196   0.0000   0.2707
  19.500   2.3404   0.06292   0.05905  -0.1391  0.0047  0.7187  -15.8156   0.0000   0.2687
  20.000   2.3314   0.07013   0.06638  -0.1382  0.0047  0.7493  -16.2767   0.0000   0.2670
  20.500   2.3187   0.07798   0.07434  -0.1378  0.0047  0.7793  -16.7020   0.0000   0.2656
  21.000   2.3008   0.08634   0.08283  -0.1379  0.0047  0.8058  -17.0729   0.0000   0.2645


