XFLR5 v6.02 Beta

 Calculated polar for: WORTMANN FX 63-137

 1 1 Reynolds number fixed          Mach number fixed         

 xtrf =   1.000 (top)        1.000 (bottom)
 Mach =   0.000     Re =    28.000 e 6     Ncrit =   9.000

  alpha     CL        CD       CDp       CM    Top Xtr Bot Xtr   Cpmin    Chinge    XCp    
 ------- -------- --------- --------- -------- ------- ------- -------- --------- ---------
 -21.500  -1.0770   0.06765   0.06473  -0.1386  0.5962  0.0023  -24.1998   0.0000   0.0839
 -21.000  -1.1541   0.05083   0.04773  -0.1519  0.6098  0.0023  -25.3853   0.0000   0.0838
 -20.500  -1.1836   0.04096   0.03773  -0.1600  0.5974  0.0023  -25.5925   0.0000   0.0822
 -19.500  -1.1955   0.02868   0.02517  -0.1697  0.5511  0.0024  -25.0522   0.0000   0.0787
 -19.000  -1.1883   0.02414   0.02054  -0.1731  0.5411  0.0025  -24.5421   0.0000   0.0764
 -18.500  -1.1753   0.02078   0.01713  -0.1744  0.5337  0.0026  -23.9151   0.0000   0.0749
 -18.000  -1.1430   0.01778   0.01406  -0.1787  0.5311  0.0027  -23.0576   0.0000   0.0680
 -17.500  -1.0941   0.01539   0.01151  -0.1849  0.4876  0.0028  -22.0080   0.0000   0.0561
 -17.000  -1.0439   0.01419   0.01013  -0.1873  0.4146  0.0029  -20.9202   0.0000   0.0462
 -16.500  -0.9901   0.01322   0.00911  -0.1890  0.4022  0.0031  -19.8022   0.0000   0.0352
 -16.000  -0.9349   0.01239   0.00824  -0.1905  0.4007  0.0032  -18.6895   0.0000   0.0227
 -15.500  -0.8785   0.01167   0.00748  -0.1919  0.4005  0.0034  -17.5893   0.0000   0.0084
 -15.000  -0.8225   0.01112   0.00683  -0.1928  0.3698  0.0035  -16.5202   0.0000  -0.0074
 -14.500  -0.7655   0.01061   0.00626  -0.1939  0.3564  0.0036  -15.4683   0.0000  -0.0261
 -14.000  -0.7094   0.01025   0.00576  -0.1945  0.2902  0.0036  -14.4557   0.0000  -0.0471
 -13.500  -0.6510   0.00982   0.00528  -0.1955  0.2775  0.0037  -13.5027   0.0000  -0.0735
 -12.500  -0.5339   0.00912   0.00447  -0.1973  0.2461  0.0038  -11.7343   0.0000  -0.1438
 -11.500  -0.4156   0.00853   0.00378  -0.1991  0.2213  0.0039  -10.0586   0.0000  -0.2559
 -11.000  -0.3569   0.00833   0.00349  -0.1998  0.1884  0.0040  -9.2702   0.0000  -0.3389
 -10.500  -0.2973   0.00810   0.00322  -0.2007  0.1810  0.0040  -8.5035   0.0000  -0.4573
 -10.000  -0.2376   0.00788   0.00298  -0.2016  0.1727  0.0040  -7.7649   0.0000  -0.6361
  -9.500  -0.1776   0.00768   0.00275  -0.2024  0.1698  0.0041  -7.0573   0.0000  -0.9361
  -9.000  -0.1177   0.00750   0.00254  -0.2033  0.1685  0.0041  -6.3830   0.0000  -1.5423
  -8.500  -0.0584   0.00740   0.00237  -0.2040  0.1446  0.0041  -5.7363   0.0000  -3.3622
  -8.000   0.0012   0.00728   0.00222  -0.2047  0.1391  0.0042  -5.1165   0.0000  171.5310
  -7.500   0.0610   0.00717   0.00208  -0.2055  0.1340  0.0042  -4.5256   0.0000   3.7191
  -7.000   0.1208   0.00708   0.00196  -0.2062  0.1304  0.0043  -4.0494   0.0000   2.0042
  -6.500   0.1805   0.00699   0.00186  -0.2069  0.1258  0.0043  -3.6606   0.0000   1.4252
  -6.000   0.2402   0.00693   0.00178  -0.2076  0.1239  0.0043  -3.2868   0.0000   1.1343
  -5.500   0.2998   0.00688   0.00172  -0.2083  0.1235  0.0044  -2.9273   0.0000   0.9593
  -5.000   0.3593   0.00684   0.00166  -0.2089  0.1231  0.0044  -2.5813   0.0000   0.8425
  -4.500   0.4187   0.00681   0.00163  -0.2096  0.1225  0.0045  -2.2541   0.0000   0.7589
  -4.000   0.4772   0.00686   0.00164  -0.2100  0.1082  0.0045  -1.9433   0.0000   0.6965
  -3.500   0.5355   0.00693   0.00164  -0.2104  0.0932  0.0046  -1.6476   0.0000   0.6478
  -3.000   0.5944   0.00695   0.00165  -0.2110  0.0900  0.0059  -1.3655   0.0000   0.6084
  -2.500   0.6530   0.00699   0.00167  -0.2115  0.0868  0.0063  -1.0977   0.0000   0.5762
  -2.000   0.7116   0.00703   0.00170  -0.2119  0.0843  0.0069  -0.9555   0.0000   0.5492
  -1.500   0.7699   0.00709   0.00175  -0.2124  0.0837  0.0084  -1.0056   0.0000   0.5263
  -1.000   0.8280   0.00716   0.00182  -0.2128  0.0826  0.0098  -1.0578   0.0000   0.5066
  -0.500   0.8850   0.00733   0.00193  -0.2129  0.0652  0.0151  -1.1095   0.0000   0.4895
   0.000   0.9419   0.00748   0.00204  -0.2131  0.0543  0.0155  -1.1616   0.0000   0.4744
   0.500   0.9990   0.00761   0.00215  -0.2134  0.0506  0.0159  -1.2155   0.0000   0.4610
   1.000   1.0563   0.00772   0.00226  -0.2136  0.0516  0.0171  -1.2793   0.0000   0.4490
   1.500   1.1131   0.00785   0.00238  -0.2138  0.0514  0.0173  -1.3546   0.0000   0.4381
   2.000   1.1693   0.00802   0.00253  -0.2139  0.0493  0.0213  -1.4303   0.0000   0.4283
   2.500   1.2208   0.00859   0.00297  -0.2131  0.0034  0.0376  -1.5153   0.0000   0.4191
   3.000   1.2760   0.00882   0.00318  -0.2130  0.0026  0.0383  -1.6271   0.0000   0.4108
   3.500   1.3307   0.00906   0.00341  -0.2128  0.0020  0.0458  -1.7440   0.0000   0.4031
   4.000   1.3851   0.00932   0.00365  -0.2126  0.0025  0.0495  -1.8825   0.0000   0.3959
   4.500   1.4392   0.00958   0.00392  -0.2124  0.0019  0.0664  -2.0594   0.0000   0.3892
   5.000   1.4925   0.00987   0.00419  -0.2121  0.0014  0.0726  -2.2400   0.0000   0.3829
   5.500   1.5457   0.01017   0.00450  -0.2117  0.0013  0.1024  -2.4251   0.0000   0.3770
   6.000   1.5985   0.01048   0.00485  -0.2113  0.0012  0.1494  -2.6143   0.0000   0.3715
   6.500   1.6502   0.01083   0.00520  -0.2107  0.0012  0.1736  -2.8065   0.0000   0.3661
   7.000   1.7012   0.01120   0.00557  -0.2101  0.0012  0.1980  -3.0020   0.0000   0.3611
   7.500   1.7512   0.01159   0.00598  -0.2092  0.0012  0.2205  -3.2001   0.0000   0.3562
   8.000   1.7996   0.01203   0.00640  -0.2080  0.0012  0.2158  -3.3995   0.0000   0.3514
   8.500   1.8495   0.01243   0.00690  -0.2073  0.0012  0.3231  -3.6057   0.0000   0.3470
   9.500   1.9409   0.01345   0.00796  -0.2041  0.0011  0.3721  -4.1434   0.0000   0.3382
  10.000   1.9857   0.01399   0.00860  -0.2026  0.0011  0.4696  -4.7038   0.0000   0.3341
  10.500   2.0147   0.01464   0.00928  -0.1977  0.0011  0.4917  -5.2040   0.0000   0.3292
  11.000   2.0451   0.01541   0.01007  -0.1933  0.0011  0.4980  -5.7336   0.0000   0.3246
  11.500   2.0759   0.01629   0.01098  -0.1892  0.0011  0.5195  -6.2891   0.0000   0.3203
  12.000   2.1046   0.01731   0.01204  -0.1849  0.0010  0.5381  -6.8543   0.0000   0.3160
  12.500   2.1323   0.01850   0.01327  -0.1808  0.0010  0.5608  -7.4340   0.0000   0.3119
  13.000   2.1580   0.01989   0.01471  -0.1767  0.0010  0.5881  -8.0184   0.0000   0.3079
  13.500   2.1823   0.02151   0.01640  -0.1728  0.0009  0.6293  -8.6112   0.0000   0.3040
  14.000   2.2032   0.02338   0.01835  -0.1687  0.0009  0.6732  -9.1984   0.0000   0.3003
  14.500   2.2234   0.02555   0.02058  -0.1649  0.0009  0.7019  -9.7963   0.0000   0.2967
  15.000   2.2429   0.02800   0.02312  -0.1615  0.0009  0.7457  -10.4046   0.0000   0.2934
  15.500   2.2602   0.03081   0.02602  -0.1583  0.0008  0.7929  -11.0128   0.0000   0.2902
  16.500   2.2932   0.03756   0.03309  -0.1535  0.0008  1.0000  -12.2613   0.0000   0.2845
  17.000   2.3000   0.04161   0.03719  -0.1505  0.0007  1.0000  -12.8233   0.0000   0.2817
  17.500   2.3039   0.04633   0.04198  -0.1478  0.0007  1.0000  -13.3716   0.0000   0.2790
  19.000   2.2295   0.07280   0.06893  -0.1406  0.0015  1.0000  -14.1443   0.0000   0.2736
  19.500   2.2198   0.08018   0.07641  -0.1401  0.0018  1.0000  -14.5867   0.0000   0.2721


