XFLR5 v6.02 Beta

 Calculated polar for: WORTMANN FX 63-137

 1 1 Reynolds number fixed          Mach number fixed         

 xtrf =   1.000 (top)        1.000 (bottom)
 Mach =   0.000     Re =    32.500 e 6     Ncrit =   9.000

  alpha     CL        CD       CDp       CM    Top Xtr Bot Xtr   Cpmin    Chinge    XCp    
 ------- -------- --------- --------- -------- ------- ------- -------- --------- ---------
 -21.000  -1.1848   0.04678   0.04358  -0.1558  0.5646  0.0021  -25.9741   0.0000   0.0844
 -20.500  -1.1986   0.03916   0.03582  -0.1619  0.5415  0.0021  -25.8759   0.0000   0.0826
 -20.000  -1.2104   0.03228   0.02883  -0.1674  0.5311  0.0022  -25.7070   0.0000   0.0811
 -19.000  -1.1958   0.02321   0.01963  -0.1741  0.5306  0.0023  -24.6797   0.0000   0.0766
 -18.500  -1.1844   0.01991   0.01624  -0.1754  0.5017  0.0023  -24.0696   0.0000   0.0754
 -18.000  -1.1463   0.01717   0.01340  -0.1800  0.4909  0.0024  -23.1321   0.0000   0.0674
 -17.500  -1.0947   0.01496   0.01102  -0.1862  0.4300  0.0025  -22.0448   0.0000   0.0550
 -17.000  -1.0432   0.01386   0.00983  -0.1881  0.4008  0.0027  -20.9331   0.0000   0.0453
 -16.000  -0.9350   0.01218   0.00801  -0.1910  0.3645  0.0030  -18.7104   0.0000   0.0223
 -15.500  -0.8788   0.01149   0.00726  -0.1922  0.3579  0.0031  -17.6136   0.0000   0.0081
 -15.000  -0.8218   0.01087   0.00661  -0.1934  0.3485  0.0033  -16.5340   0.0000  -0.0084
 -14.000  -0.7076   0.00996   0.00552  -0.1953  0.2781  0.0036  -14.4586   0.0000  -0.0489
 -13.500  -0.6497   0.00958   0.00508  -0.1961  0.2508  0.0036  -13.5225   0.0000  -0.0751
 -13.000  -0.5911   0.00922   0.00466  -0.1970  0.2411  0.0037  -12.6236   0.0000  -0.1070
 -12.500  -0.5321   0.00889   0.00429  -0.1980  0.2327  0.0038  -11.7482   0.0000  -0.1464
 -12.000  -0.4738   0.00865   0.00395  -0.1987  0.1857  0.0038  -10.9062   0.0000  -0.1947
 -11.500  -0.4141   0.00836   0.00364  -0.1996  0.1910  0.0039  -10.0765   0.0000  -0.2590
 -11.000  -0.3547   0.00812   0.00336  -0.2005  0.1790  0.0039  -9.2824   0.0000  -0.3443
 -10.500  -0.2950   0.00789   0.00310  -0.2013  0.1716  0.0040  -8.5145   0.0000  -0.4650
 -10.000  -0.2352   0.00768   0.00286  -0.2022  0.1698  0.0040  -7.7752   0.0000  -0.6477
  -9.500  -0.1753   0.00749   0.00265  -0.2031  0.1691  0.0041  -7.0661   0.0000  -0.9556
  -9.000  -0.1160   0.00737   0.00246  -0.2037  0.1441  0.0041  -6.3929   0.0000  -1.5722
  -8.500  -0.0564   0.00724   0.00230  -0.2045  0.1385  0.0041  -5.7420   0.0000  -3.5059
  -8.000   0.0034   0.00712   0.00215  -0.2053  0.1333  0.0042  -5.1198   0.0000  61.7007
  -7.500   0.0633   0.00701   0.00202  -0.2060  0.1283  0.0042  -4.5268   0.0000   3.6032
  -7.000   0.1231   0.00692   0.00191  -0.2067  0.1249  0.0043  -4.0512   0.0000   1.9762
  -6.500   0.1828   0.00684   0.00181  -0.2075  0.1239  0.0043  -3.6610   0.0000   1.4135
  -6.000   0.2425   0.00678   0.00173  -0.2082  0.1235  0.0043  -3.2860   0.0000   1.1282
  -5.500   0.3021   0.00673   0.00167  -0.2088  0.1232  0.0044  -2.9261   0.0000   0.9558
  -5.000   0.3616   0.00669   0.00162  -0.2095  0.1226  0.0044  -2.5796   0.0000   0.8403
  -4.500   0.4203   0.00672   0.00162  -0.2100  0.1085  0.0045  -2.2534   0.0000   0.7579
  -4.000   0.4791   0.00675   0.00160  -0.2105  0.0997  0.0045  -1.9411   0.0000   0.6957
  -3.500   0.5378   0.00678   0.00160  -0.2109  0.0904  0.0046  -1.6440   0.0000   0.6470
  -3.000   0.5967   0.00681   0.00161  -0.2115  0.0873  0.0055  -1.3616   0.0000   0.6079
  -2.500   0.6554   0.00684   0.00163  -0.2120  0.0843  0.0052  -1.0937   0.0000   0.5758
  -2.000   0.7139   0.00688   0.00166  -0.2124  0.0841  0.0064  -0.9570   0.0000   0.5489
  -1.500   0.7723   0.00694   0.00171  -0.2129  0.0833  0.0079  -1.0072   0.0000   0.5261
  -1.000   0.8295   0.00709   0.00182  -0.2131  0.0675  0.0091  -1.0587   0.0000   0.5066
  -0.500   0.8868   0.00722   0.00191  -0.2133  0.0556  0.0148  -1.1107   0.0000   0.4895
   0.500   1.0013   0.00747   0.00211  -0.2139  0.0479  0.0158  -1.2173   0.0000   0.4610
   1.000   1.0587   0.00757   0.00221  -0.2142  0.0501  0.0171  -1.2814   0.0000   0.4490
   1.500   1.1155   0.00771   0.00234  -0.2143  0.0491  0.0173  -1.3567   0.0000   0.4381
   2.000   1.1717   0.00788   0.00249  -0.2144  0.0463  0.0206  -1.4324   0.0000   0.4283
   2.500   1.2237   0.00841   0.00291  -0.2137  0.0030  0.0375  -1.5183   0.0000   0.4192
   3.000   1.2789   0.00863   0.00311  -0.2136  0.0022  0.0382  -1.6309   0.0000   0.4109
   3.500   1.3338   0.00887   0.00332  -0.2135  0.0017  0.0445  -1.7480   0.0000   0.4032
   4.000   1.3883   0.00912   0.00356  -0.2133  0.0021  0.0480  -1.8880   0.0000   0.3960
   4.500   1.4425   0.00938   0.00382  -0.2131  0.0016  0.0660  -2.0653   0.0000   0.3894
   5.000   1.4960   0.00966   0.00409  -0.2128  0.0013  0.0692  -2.2464   0.0000   0.3831
   6.000   1.6023   0.01025   0.00472  -0.2121  0.0012  0.1459  -2.6218   0.0000   0.3716
   6.500   1.6539   0.01060   0.00506  -0.2115  0.0012  0.1597  -2.8141   0.0000   0.3663
   7.500   1.7555   0.01135   0.00581  -0.2100  0.0012  0.2027  -3.2091   0.0000   0.3563
   8.000   1.8043   0.01177   0.00623  -0.2089  0.0012  0.1974  -3.4097   0.0000   0.3516
   8.500   1.8547   0.01216   0.00671  -0.2083  0.0012  0.3071  -3.6170   0.0000   0.3472
   9.000   1.9012   0.01264   0.00719  -0.2068  0.0012  0.3165  -3.8731   0.0000   0.3427
   9.500   1.9468   0.01315   0.00773  -0.2052  0.0011  0.3488  -4.1770   0.0000   0.3384
  10.000   1.9924   0.01366   0.00834  -0.2038  0.0011  0.4464  -4.7440   0.0000   0.3343
  11.000   2.0554   0.01500   0.00971  -0.1951  0.0011  0.4696  -5.7996   0.0000   0.3250
  11.500   2.0860   0.01583   0.01059  -0.1909  0.0011  0.4980  -6.3586   0.0000   0.3207
  12.000   2.1149   0.01680   0.01158  -0.1866  0.0010  0.5118  -6.9263   0.0000   0.3163
  12.500   2.1424   0.01793   0.01275  -0.1824  0.0010  0.5308  -7.5074   0.0000   0.3122
  13.000   2.1693   0.01923   0.01409  -0.1783  0.0010  0.5584  -8.1024   0.0000   0.3082
  13.500   2.1947   0.02072   0.01563  -0.1744  0.0009  0.5899  -8.7070   0.0000   0.3043
  14.000   2.2168   0.02246   0.01745  -0.1703  0.0009  0.6308  -9.3061   0.0000   0.3006
  14.500   2.2362   0.02458   0.01965  -0.1663  0.0009  0.6741  -9.9008   0.0000   0.2969
  15.000   2.2549   0.02696   0.02209  -0.1626  0.0009  0.7023  -10.5066   0.0000   0.2935
  16.500   2.3080   0.03624   0.03175  -0.1546  0.0007  0.9473  -12.3990   0.0000   0.2846
  18.500   2.2603   0.06292   0.05899  -0.1421  0.0019  1.0000  -13.9632   0.0000   0.2749
  19.000   2.2547   0.06974   0.06589  -0.1411  0.0022  1.0000  -14.4347   0.0000   0.2731
  19.500   2.2431   0.07748   0.07374  -0.1405  0.0024  1.0000  -14.8433   0.0000   0.2717


