XFLR5 v6.02 Beta

 Calculated polar for: WORTMANN FX 63-137

 1 1 Reynolds number fixed          Mach number fixed         

 xtrf =   1.000 (top)        1.000 (bottom)
 Mach =   0.000     Re =    56.500 e 6     Ncrit =   9.000

  alpha     CL        CD       CDp       CM    Top Xtr Bot Xtr   Cpmin    Chinge    XCp    
 ------- -------- --------- --------- -------- ------- ------- -------- --------- ---------
 -22.000  -1.2382   0.05164   0.04846  -0.1538  0.4658  0.0014  -27.7285   0.0000   0.0894
 -21.000  -1.2780   0.03545   0.03202  -0.1665  0.4278  0.0015  -27.7154   0.0000   0.0871
 -20.500  -1.2850   0.02944   0.02593  -0.1711  0.4248  0.0015  -27.4292   0.0000   0.0858
 -20.000  -1.2752   0.02538   0.02181  -0.1738  0.4207  0.0015  -26.8443   0.0000   0.0840
 -19.500  -1.2622   0.02162   0.01799  -0.1763  0.4161  0.0016  -26.2045   0.0000   0.0820
 -19.000  -1.2447   0.01869   0.01501  -0.1778  0.4110  0.0016  -25.4849   0.0000   0.0801
 -18.500  -1.2018   0.01628   0.01256  -0.1825  0.4040  0.0017  -24.4505   0.0000   0.0720
 -18.000  -1.1487   0.01444   0.01058  -0.1878  0.3530  0.0017  -23.3008   0.0000   0.0610
 -17.000  -1.0421   0.01264   0.00870  -0.1909  0.3377  0.0019  -20.9860   0.0000   0.0424
 -16.500  -0.9878   0.01197   0.00795  -0.1920  0.3052  0.0020  -19.8521   0.0000   0.0318
 -16.000  -0.9319   0.01133   0.00727  -0.1931  0.2981  0.0021  -18.7266   0.0000   0.0193
 -15.500  -0.8751   0.01075   0.00665  -0.1942  0.2936  0.0023  -17.6189   0.0000   0.0048
 -15.000  -0.8177   0.01021   0.00609  -0.1953  0.2790  0.0024  -16.5339   0.0000  -0.0119
 -14.500  -0.7609   0.00979   0.00556  -0.1961  0.2329  0.0025  -15.4854   0.0000  -0.0307
 -14.000  -0.7024   0.00934   0.00509  -0.1971  0.2234  0.0027  -14.4502   0.0000  -0.0537
 -12.500  -0.5261   0.00827   0.00388  -0.1999  0.1699  0.0032  -11.7610   0.0000  -0.1545
 -11.000  -0.3469   0.00741   0.00295  -0.2027  0.1690  0.0039  -9.2815   0.0000  -0.3641
 -10.500  -0.2876   0.00724   0.00273  -0.2034  0.1449  0.0040  -8.5153   0.0000  -0.4907
 -10.000  -0.2280   0.00708   0.00253  -0.2042  0.1395  0.0040  -7.7757   0.0000  -0.6848
  -9.500  -0.1682   0.00692   0.00235  -0.2049  0.1341  0.0041  -7.0650   0.0000  -1.0179
  -9.000  -0.1084   0.00679   0.00219  -0.2057  0.1244  0.0041  -6.3838   0.0000  -1.7194
  -8.500  -0.0485   0.00666   0.00205  -0.2065  0.1238  0.0041  -5.7300   0.0000  -4.1540
  -8.000   0.0113   0.00655   0.00192  -0.2072  0.1236  0.0042  -5.1056   0.0000  19.1084
  -7.500   0.0712   0.00646   0.00181  -0.2079  0.1233  0.0042  -4.5110   0.0000   3.2587
  -6.500   0.1907   0.00631   0.00164  -0.2093  0.1227  0.0043  -3.6533   0.0000   1.3755
  -6.000   0.2497   0.00631   0.00158  -0.2099  0.1024  0.0043  -3.2790   0.0000   1.1098
  -5.500   0.3090   0.00628   0.00153  -0.2105  0.0994  0.0044  -2.9185   0.0000   0.9452
  -5.000   0.3683   0.00627   0.00150  -0.2111  0.0967  0.0044  -2.5731   0.0000   0.8337
  -4.500   0.4276   0.00626   0.00147  -0.2116  0.0930  0.0045  -2.2429   0.0000   0.7532
  -4.000   0.4867   0.00627   0.00146  -0.2122  0.0846  0.0045  -1.9287   0.0000   0.6923
  -3.500   0.5458   0.00628   0.00146  -0.2127  0.0843  0.0046  -1.6301   0.0000   0.6445
  -3.000   0.6047   0.00630   0.00147  -0.2133  0.0842  0.0046  -1.3473   0.0000   0.6061
  -2.500   0.6635   0.00633   0.00149  -0.2138  0.0839  0.0046  -1.0797   0.0000   0.5745
  -2.000   0.7213   0.00644   0.00157  -0.2141  0.0681  0.0051  -0.9615   0.0000   0.5481
  -1.500   0.7788   0.00657   0.00163  -0.2143  0.0487  0.0061  -1.0113   0.0000   0.5257
  -1.000   0.8367   0.00666   0.00170  -0.2147  0.0460  0.0071  -1.0636   0.0000   0.5062
  -0.500   0.8945   0.00675   0.00178  -0.2150  0.0435  0.0078  -1.1161   0.0000   0.4892
   0.000   0.9522   0.00685   0.00186  -0.2153  0.0412  0.0084  -1.1689   0.0000   0.4743
   0.500   1.0098   0.00695   0.00195  -0.2157  0.0389  0.0154  -1.2238   0.0000   0.4610
   1.000   1.0672   0.00705   0.00206  -0.2159  0.0419  0.0170  -1.2887   0.0000   0.4491
   1.500   1.1241   0.00718   0.00217  -0.2162  0.0409  0.0171  -1.3643   0.0000   0.4383
   2.500   1.2337   0.00779   0.00266  -0.2157  0.0017  0.0372  -1.5287   0.0000   0.4194
   3.500   1.3445   0.00820   0.00304  -0.2157  0.0013  0.0399  -1.7618   0.0000   0.4035
   4.000   1.3994   0.00843   0.00326  -0.2155  0.0013  0.0430  -1.9069   0.0000   0.3964
   4.500   1.4538   0.00868   0.00349  -0.2154  0.0013  0.0491  -2.0854   0.0000   0.3898
   6.000   1.6148   0.00949   0.00430  -0.2146  0.0012  0.1118  -2.6464   0.0000   0.3721
   6.500   1.6674   0.00980   0.00460  -0.2141  0.0012  0.1241  -2.8411   0.0000   0.3668
   7.000   1.7194   0.01012   0.00493  -0.2136  0.0012  0.1463  -3.0394   0.0000   0.3618
   7.500   1.7703   0.01048   0.00527  -0.2129  0.0012  0.1540  -3.2404   0.0000   0.3569
   8.000   1.8205   0.01086   0.00564  -0.2120  0.0012  0.1506  -3.4443   0.0000   0.3522
   8.500   1.8704   0.01125   0.00604  -0.2112  0.0012  0.1946  -3.6519   0.0000   0.3478
   9.500   1.9664   0.01211   0.00694  -0.2089  0.0012  0.2541  -4.2900   0.0000   0.3392
  10.000   2.0137   0.01257   0.00746  -0.2077  0.0011  0.3390  -4.8736   0.0000   0.3351
  10.500   2.0580   0.01309   0.00800  -0.2059  0.0011  0.3698  -5.4707   0.0000   0.3310
  11.000   2.0952   0.01368   0.00860  -0.2027  0.0011  0.3729  -6.0571   0.0000   0.3267
  11.500   2.1225   0.01435   0.00927  -0.1975  0.0011  0.3826  -6.6027   0.0000   0.3221
  12.000   2.1518   0.01513   0.01007  -0.1930  0.0010  0.3843  -7.1842   0.0000   0.3177
  12.500   2.1818   0.01603   0.01099  -0.1888  0.0010  0.3983  -7.7905   0.0000   0.3135
  14.000   2.2594   0.01979   0.01489  -0.1759  0.0008  0.4986  -9.6463   0.0000   0.3015
  14.500   2.2819   0.02143   0.01659  -0.1718  0.0008  0.5326  -10.2766   0.0000   0.2978
  15.000   2.2580   0.02649   0.02185  -0.1623  0.0012  0.5607  -10.4985   0.0000   0.2933
  15.500   2.2716   0.02934   0.02479  -0.1584  0.0018  0.5844  -11.0678   0.0000   0.2899
  16.000   2.2885   0.03222   0.02774  -0.1553  0.0022  0.6266  -11.7234   0.0000   0.2868
  16.500   2.2962   0.03598   0.03158  -0.1518  0.0026  0.6465  -12.2793   0.0000   0.2837
  17.000   2.3045   0.03979   0.03547  -0.1487  0.0029  0.6756  -12.8503   0.0000   0.2809
  17.500   2.3092   0.04428   0.04004  -0.1458  0.0035  0.6961  -13.3970   0.0000   0.2781
  18.000   2.3116   0.04943   0.04529  -0.1435  0.0038  0.7336  -13.9327   0.0000   0.2757
  18.500   2.3109   0.05530   0.05127  -0.1417  0.0041  0.7753  -14.4488   0.0000   0.2735
  19.000   2.3080   0.06178   0.05788  -0.1405  0.0043  0.8248  -14.9493   0.0000   0.2716
  19.500   2.3102   0.06914   0.06550  -0.1414  0.0044  1.0000  -15.5088   0.0000   0.2703


