XFLR5 v6.02 Beta

 Calculated polar for: WORTMANN FX 63-137

 1 1 Reynolds number fixed          Mach number fixed         

 xtrf =   1.000 (top)        1.000 (bottom)
 Mach =   0.000     Re =    17.750 e 6     Ncrit =   9.000

  alpha     CL        CD       CDp       CM    Top Xtr Bot Xtr   Cpmin    Chinge    XCp    
 ------- -------- --------- --------- -------- ------- ------- -------- --------- ---------
 -20.000  -1.1376   0.04120   0.03819  -0.1578  0.7218  0.0031  -24.3318   0.0000   0.0794
 -19.500  -1.1428   0.03461   0.03148  -0.1634  0.7170  0.0031  -24.0841   0.0000   0.0767
 -19.000  -1.1426   0.02890   0.02556  -0.1685  0.6755  0.0032  -23.7284   0.0000   0.0738
 -18.500  -1.1300   0.02478   0.02134  -0.1717  0.6578  0.0032  -23.1511   0.0000   0.0706
 -17.500  -1.0847   0.01843   0.01479  -0.1773  0.6243  0.0033  -21.7031   0.0000   0.0614
 -17.000  -1.0369   0.01610   0.01234  -0.1827  0.5967  0.0034  -20.6860   0.0000   0.0493
 -16.500  -0.9857   0.01472   0.01074  -0.1862  0.5302  0.0035  -19.6218   0.0000   0.0372
 -16.000  -0.9339   0.01385   0.00972  -0.1877  0.4915  0.0035  -18.5529   0.0000   0.0256
 -15.500  -0.8793   0.01306   0.00886  -0.1891  0.4793  0.0036  -17.4756   0.0000   0.0118
 -15.000  -0.8232   0.01234   0.00808  -0.1904  0.4667  0.0036  -16.4093   0.0000  -0.0042
 -14.500  -0.7663   0.01169   0.00739  -0.1917  0.4649  0.0037  -15.3605   0.0000  -0.0230
 -14.000  -0.7113   0.01126   0.00680  -0.1924  0.4129  0.0037  -14.3609   0.0000  -0.0433
 -13.500  -0.6560   0.01088   0.00623  -0.1931  0.3384  0.0038  -13.3902   0.0000  -0.0673
 -13.000  -0.5975   0.01041   0.00573  -0.1942  0.3370  0.0038  -12.4356   0.0000  -0.0983
 -12.500  -0.5399   0.01007   0.00527  -0.1950  0.3049  0.0039  -11.5601   0.0000  -0.1351
 -12.000  -0.4814   0.00972   0.00486  -0.1959  0.2929  0.0039  -10.6984   0.0000  -0.1819
 -11.500  -0.4223   0.00941   0.00450  -0.1968  0.2848  0.0040  -9.8204   0.0000  -0.2424
 -10.500  -0.3051   0.00891   0.00382  -0.1985  0.2218  0.0041  -8.2228   0.0000  -0.4319
 -10.000  -0.2452   0.00863   0.00350  -0.1994  0.2204  0.0042  -7.4666   0.0000  -0.5995
  -9.500  -0.1860   0.00843   0.00322  -0.2003  0.1956  0.0042  -6.7636   0.0000  -0.8710
  -9.000  -0.1264   0.00822   0.00294  -0.2011  0.1805  0.0042  -6.1338   0.0000  -1.4019
  -8.500  -0.0664   0.00802   0.00270  -0.2020  0.1715  0.0043  -5.4842   0.0000  -2.9010
  -8.000  -0.0063   0.00784   0.00249  -0.2029  0.1697  0.0043  -4.8729   0.0000  -33.1988
  -7.500   0.0538   0.00768   0.00231  -0.2037  0.1688  0.0043  -4.3201   0.0000   4.1486
  -5.500   0.2923   0.00737   0.00186  -0.2066  0.1338  0.0044  -2.8962   0.0000   0.9716
  -4.500   0.4114   0.00728   0.00176  -0.2079  0.1241  0.0045  -2.2560   0.0000   0.7639
  -3.500   0.5297   0.00727   0.00172  -0.2091  0.1228  0.0046  -1.6528   0.0000   0.6496
  -3.000   0.5871   0.00741   0.00177  -0.2094  0.0992  0.0075  -1.3752   0.0000   0.6101
  -2.500   0.6456   0.00746   0.00179  -0.2098  0.0956  0.0085  -1.1091   0.0000   0.5774
  -2.000   0.7040   0.00751   0.00183  -0.2103  0.0899  0.0087  -0.9507   0.0000   0.5501
  -1.500   0.7625   0.00755   0.00187  -0.2108  0.0866  0.0145  -1.0004   0.0000   0.5269
  -1.000   0.8205   0.00763   0.00194  -0.2112  0.0841  0.0152  -1.0526   0.0000   0.5070
  -0.500   0.8782   0.00772   0.00202  -0.2115  0.0834  0.0156  -1.1049   0.0000   0.4897
   0.000   0.9358   0.00782   0.00211  -0.2118  0.0827  0.0158  -1.1575   0.0000   0.4745
   1.000   1.0504   0.00803   0.00231  -0.2124  0.0829  0.0172  -1.2741   0.0000   0.4489
   1.500   1.1071   0.00816   0.00244  -0.2126  0.0818  0.0182  -1.3493   0.0000   0.4380
   2.000   1.1611   0.00852   0.00269  -0.2122  0.0610  0.0237  -1.4229   0.0000   0.4281
   2.500   1.2152   0.00885   0.00298  -0.2119  0.0370  0.0379  -1.5102   0.0000   0.4190
   3.000   1.2663   0.00942   0.00342  -0.2110  0.0038  0.0409  -1.6151   0.0000   0.4105
   3.500   1.3207   0.00968   0.00368  -0.2108  0.0031  0.0507  -1.7311   0.0000   0.4028
   4.000   1.3750   0.00994   0.00393  -0.2106  0.0037  0.0658  -1.8647   0.0000   0.3956
   4.500   1.4282   0.01025   0.00423  -0.2102  0.0030  0.0690  -2.0399   0.0000   0.3888
   5.000   1.4811   0.01056   0.00454  -0.2098  0.0022  0.0839  -2.2193   0.0000   0.3825
   5.500   1.5336   0.01089   0.00487  -0.2093  0.0016  0.1138  -2.4025   0.0000   0.3766
   6.000   1.5868   0.01119   0.00526  -0.2091  0.0013  0.1974  -2.5913   0.0000   0.3710
   6.500   1.6385   0.01155   0.00566  -0.2086  0.0013  0.2483  -2.7827   0.0000   0.3657
   7.000   1.6886   0.01195   0.00608  -0.2077  0.0012  0.2724  -2.9757   0.0000   0.3606
   7.500   1.7400   0.01232   0.00655  -0.2073  0.0012  0.3682  -3.1754   0.0000   0.3558
   8.000   1.7853   0.01286   0.00700  -0.2054  0.0012  0.3079  -3.3683   0.0000   0.3509
   9.000   1.8789   0.01385   0.00814  -0.2028  0.0012  0.4441  -3.8082   0.0000   0.3419
   9.500   1.9184   0.01444   0.00877  -0.2000  0.0012  0.4672  -4.0661   0.0000   0.3373
  10.000   1.9510   0.01510   0.00951  -0.1959  0.0011  0.5258  -4.5025   0.0000   0.3326
  10.500   1.9822   0.01590   0.01032  -0.1917  0.0011  0.5317  -5.0046   0.0000   0.3279
  11.000   2.0139   0.01680   0.01127  -0.1878  0.0011  0.5624  -5.5316   0.0000   0.3235
  11.500   2.0429   0.01786   0.01238  -0.1837  0.0011  0.5911  -6.0637   0.0000   0.3191
  12.000   2.0710   0.01910   0.01368  -0.1797  0.0011  0.6284  -6.6117   0.0000   0.3150
  12.500   2.0971   0.02053   0.01519  -0.1757  0.0010  0.6594  -7.1791   0.0000   0.3109
  13.000   2.1216   0.02219   0.01691  -0.1718  0.0010  0.6944  -7.7451   0.0000   0.3070
  13.500   2.1430   0.02410   0.01890  -0.1678  0.0009  0.7258  -8.3075   0.0000   0.3032
  14.000   2.1647   0.02631   0.02119  -0.1644  0.0009  0.7774  -8.8891   0.0000   0.2997
  15.000   2.2064   0.03161   0.02684  -0.1588  0.0009  1.0000  -10.0891   0.0000   0.2933
  15.500   2.2202   0.03484   0.03013  -0.1556  0.0008  1.0000  -10.6587   0.0000   0.2902
  16.000   2.2314   0.03848   0.03382  -0.1525  0.0008  1.0000  -11.2201   0.0000   0.2872
  16.500   2.2384   0.04257   0.03798  -0.1495  0.0008  1.0000  -11.7594   0.0000   0.2844
  17.000   2.2437   0.04724   0.04272  -0.1470  0.0008  1.0000  -12.2936   0.0000   0.2817
  17.500   2.2476   0.05233   0.04788  -0.1448  0.0008  1.0000  -12.8245   0.0000   0.2793
  18.000   2.2488   0.05794   0.05357  -0.1430  0.0007  1.0000  -13.3423   0.0000   0.2771
  18.500   2.2551   0.06299   0.05869  -0.1416  0.0007  1.0000  -13.9153   0.0000   0.2748
  19.000   2.2501   0.06968   0.06546  -0.1406  0.0007  1.0000  -14.3881   0.0000   0.2730
  19.500   2.2420   0.07690   0.07279  -0.1400  0.0007  1.0000  -14.8334   0.0000   0.2715
  20.000   2.2300   0.08444   0.08043  -0.1397  0.0006  1.0000  -15.2430   0.0000   0.2702


