XFLR5 v6.02 Beta

 Calculated polar for: WORTMANN FX 63-137

 1 1 Reynolds number fixed          Mach number fixed         

 xtrf =   1.000 (top)        1.000 (bottom)
 Mach =   0.000     Re =    53.750 e 6     Ncrit =   9.000

  alpha     CL        CD       CDp       CM    Top Xtr Bot Xtr   Cpmin    Chinge    XCp    
 ------- -------- --------- --------- -------- ------- ------- -------- --------- ---------
 -22.500  -1.1285   0.07236   0.06935  -0.1375  0.4382  0.0015  -25.8854   0.0000   0.0887
 -21.500  -1.2633   0.04264   0.03934  -0.1609  0.4659  0.0015  -27.8330   0.0000   0.0882
 -21.000  -1.2712   0.03619   0.03279  -0.1658  0.4360  0.0015  -27.5907   0.0000   0.0868
 -20.500  -1.2795   0.03000   0.02649  -0.1706  0.4320  0.0015  -27.3317   0.0000   0.0856
 -20.000  -1.2703   0.02587   0.02230  -0.1734  0.4278  0.0016  -26.7598   0.0000   0.0838
 -19.500  -1.2574   0.02210   0.01847  -0.1759  0.4232  0.0016  -26.1245   0.0000   0.0817
 -19.000  -1.2417   0.01920   0.01553  -0.1769  0.4183  0.0017  -25.4259   0.0000   0.0804
 -18.500  -1.2012   0.01659   0.01286  -0.1817  0.4118  0.0017  -24.4299   0.0000   0.0725
 -18.000  -1.1482   0.01461   0.01075  -0.1874  0.3646  0.0018  -23.2859   0.0000   0.0612
 -17.500  -1.0964   0.01362   0.00969  -0.1891  0.3380  0.0019  -22.1374   0.0000   0.0526
 -16.500  -0.9880   0.01207   0.00805  -0.1918  0.3121  0.0021  -19.8490   0.0000   0.0320
 -16.000  -0.9322   0.01142   0.00735  -0.1929  0.3028  0.0022  -18.7249   0.0000   0.0195
 -15.500  -0.8755   0.01082   0.00671  -0.1940  0.2982  0.0023  -17.6191   0.0000   0.0051
 -15.000  -0.8181   0.01028   0.00614  -0.1951  0.2870  0.0025  -16.5356   0.0000  -0.0115
 -14.500  -0.7614   0.00985   0.00560  -0.1959  0.2366  0.0026  -15.4876   0.0000  -0.0303
 -14.000  -0.7030   0.00939   0.00512  -0.1969  0.2273  0.0028  -14.4531   0.0000  -0.0532
 -13.500  -0.6442   0.00899   0.00468  -0.1979  0.2212  0.0029  -13.5288   0.0000  -0.0806
 -12.500  -0.5266   0.00831   0.00390  -0.1997  0.1702  0.0033  -11.7632   0.0000  -0.1538
 -12.000  -0.4671   0.00800   0.00356  -0.2007  0.1692  0.0035  -10.9120   0.0000  -0.2053
 -11.500  -0.4073   0.00770   0.00324  -0.2016  0.1693  0.0038  -10.0813   0.0000  -0.2724
 -11.000  -0.3476   0.00747   0.00298  -0.2025  0.1690  0.0039  -9.2826   0.0000  -0.3624
 -10.500  -0.2882   0.00730   0.00277  -0.2032  0.1473  0.0040  -8.5164   0.0000  -0.4885
 -10.000  -0.2286   0.00713   0.00256  -0.2040  0.1412  0.0040  -7.7769   0.0000  -0.6815
  -9.500  -0.1689   0.00698   0.00238  -0.2048  0.1358  0.0041  -7.0666   0.0000  -1.0119
  -9.000  -0.1090   0.00684   0.00221  -0.2055  0.1258  0.0041  -6.3856   0.0000  -1.7056
  -8.500  -0.0492   0.00671   0.00207  -0.2063  0.1239  0.0041  -5.7318   0.0000  -4.0898
  -8.000   0.0107   0.00660   0.00194  -0.2070  0.1236  0.0042  -5.1076   0.0000  20.2899
  -7.500   0.0705   0.00651   0.00183  -0.2078  0.1234  0.0042  -4.5130   0.0000   3.2851
  -6.500   0.1900   0.00636   0.00165  -0.2092  0.1227  0.0043  -3.6543   0.0000   1.3786
  -6.000   0.2491   0.00635   0.00160  -0.2097  0.1034  0.0043  -3.2799   0.0000   1.1114
  -5.500   0.3084   0.00632   0.00155  -0.2103  0.1003  0.0044  -2.9194   0.0000   0.9462
  -5.000   0.3677   0.00631   0.00151  -0.2109  0.0975  0.0044  -2.5741   0.0000   0.8343
  -4.500   0.4269   0.00630   0.00148  -0.2115  0.0942  0.0045  -2.2440   0.0000   0.7536
  -4.000   0.4860   0.00631   0.00148  -0.2120  0.0852  0.0045  -1.9299   0.0000   0.6926
  -3.500   0.5451   0.00632   0.00148  -0.2126  0.0843  0.0046  -1.6314   0.0000   0.6447
  -3.000   0.6040   0.00634   0.00149  -0.2131  0.0842  0.0047  -1.3485   0.0000   0.6063
  -2.500   0.6628   0.00637   0.00150  -0.2136  0.0839  0.0046  -1.0809   0.0000   0.5746
  -2.000   0.7213   0.00642   0.00154  -0.2141  0.0828  0.0052  -0.9616   0.0000   0.5481
  -1.500   0.7781   0.00661   0.00164  -0.2142  0.0497  0.0062  -1.0109   0.0000   0.5257
  -1.000   0.8360   0.00670   0.00171  -0.2145  0.0469  0.0072  -1.0631   0.0000   0.5062
  -0.500   0.8938   0.00679   0.00179  -0.2149  0.0443  0.0080  -1.1156   0.0000   0.4893
   0.000   0.9514   0.00690   0.00188  -0.2152  0.0419  0.0086  -1.1684   0.0000   0.4743
   0.500   1.0091   0.00699   0.00197  -0.2155  0.0396  0.0154  -1.2232   0.0000   0.4610
   1.000   1.0664   0.00710   0.00207  -0.2158  0.0426  0.0170  -1.2880   0.0000   0.4490
   1.500   1.1234   0.00723   0.00219  -0.2160  0.0415  0.0171  -1.3636   0.0000   0.4383
   2.000   1.1801   0.00737   0.00231  -0.2162  0.0398  0.0196  -1.4399   0.0000   0.4285
   2.500   1.2328   0.00784   0.00268  -0.2155  0.0018  0.0372  -1.5278   0.0000   0.4194
   3.500   1.3436   0.00826   0.00307  -0.2155  0.0013  0.0402  -1.7606   0.0000   0.4035
   4.000   1.3984   0.00849   0.00328  -0.2154  0.0014  0.0435  -1.9053   0.0000   0.3964
   4.500   1.4528   0.00874   0.00352  -0.2152  0.0013  0.0496  -2.0837   0.0000   0.3897
   5.000   1.5070   0.00899   0.00377  -0.2150  0.0013  0.0667  -2.2665   0.0000   0.3835
   5.500   1.5604   0.00927   0.00403  -0.2147  0.0013  0.0765  -2.4532   0.0000   0.3776
   6.000   1.6137   0.00956   0.00433  -0.2143  0.0012  0.1135  -2.6442   0.0000   0.3721
   6.500   1.6665   0.00986   0.00465  -0.2140  0.0012  0.1453  -2.8392   0.0000   0.3668
   7.000   1.7181   0.01020   0.00497  -0.2133  0.0012  0.1465  -3.0369   0.0000   0.3617
   7.500   1.7690   0.01056   0.00532  -0.2126  0.0012  0.1572  -3.2377   0.0000   0.3569
   8.000   1.8191   0.01094   0.00569  -0.2117  0.0012  0.1539  -3.4413   0.0000   0.3522
   8.500   1.8689   0.01133   0.00610  -0.2109  0.0012  0.1947  -3.6486   0.0000   0.3477
  10.500   2.0557   0.01319   0.00808  -0.2055  0.0011  0.3711  -5.4568   0.0000   0.3309
  11.000   2.0901   0.01379   0.00869  -0.2016  0.0011  0.3818  -6.0249   0.0000   0.3265
  11.500   2.1193   0.01447   0.00937  -0.1969  0.0011  0.3916  -6.5816   0.0000   0.3219
  12.000   2.1485   0.01527   0.01019  -0.1924  0.0010  0.3934  -7.1613   0.0000   0.3175
  13.000   2.2059   0.01726   0.01229  -0.1840  0.0010  0.4763  -8.3755   0.0000   0.3093
  13.500   2.2322   0.01852   0.01358  -0.1798  0.0009  0.4984  -8.9963   0.0000   0.3053
  14.000   2.2559   0.01999   0.01507  -0.1754  0.0009  0.5001  -9.6179   0.0000   0.3015
  14.500   2.2782   0.02166   0.01681  -0.1713  0.0008  0.5500  -10.2467   0.0000   0.2977
  16.500   2.2916   0.03646   0.03205  -0.1515  0.0024  0.6579  -12.2385   0.0000   0.2838
  17.000   2.2974   0.04056   0.03624  -0.1483  0.0027  0.6896  -12.7873   0.0000   0.2809
  17.500   2.2989   0.04548   0.04125  -0.1455  0.0032  0.7134  -13.3043   0.0000   0.2783
  18.000   2.3082   0.04990   0.04576  -0.1435  0.0037  0.7516  -13.9025   0.0000   0.2757
  18.500   2.3075   0.05585   0.05183  -0.1418  0.0039  0.8017  -14.4172   0.0000   0.2736
  19.000   2.3047   0.06240   0.05851  -0.1407  0.0041  0.8541  -14.9182   0.0000   0.2717
  19.500   2.3047   0.06980   0.06615  -0.1413  0.0043  1.0000  -15.4540   0.0000   0.2704


