XFLR5 v6.02 Beta

 Calculated polar for: WORTMANN FX 63-137

 1 1 Reynolds number fixed          Mach number fixed         

 xtrf =   1.000 (top)        1.000 (bottom)
 Mach =   0.000     Re =    43.000 e 6     Ncrit =   9.000

  alpha     CL        CD       CDp       CM    Top Xtr Bot Xtr   Cpmin    Chinge    XCp    
 ------- -------- --------- --------- -------- ------- ------- -------- --------- ---------
 -22.000  -1.1459   0.06411   0.06102  -0.1431  0.4871  0.0017  -25.9062   0.0000   0.0874
 -21.500  -1.2020   0.05044   0.04721  -0.1538  0.4919  0.0017  -26.6698   0.0000   0.0867
 -21.000  -1.2319   0.04081   0.03745  -0.1615  0.4825  0.0017  -26.8671   0.0000   0.0855
 -20.500  -1.2469   0.03354   0.03009  -0.1673  0.4697  0.0018  -26.7499   0.0000   0.0842
 -20.000  -1.2434   0.02872   0.02519  -0.1708  0.4667  0.0018  -26.2895   0.0000   0.0825
 -19.500  -1.2362   0.02423   0.02064  -0.1741  0.4660  0.0019  -25.7638   0.0000   0.0805
 -19.000  -1.2194   0.02099   0.01735  -0.1758  0.4658  0.0019  -25.0695   0.0000   0.0784
 -18.500  -1.1947   0.01810   0.01442  -0.1785  0.4656  0.0020  -24.2781   0.0000   0.0743
 -18.000  -1.1486   0.01571   0.01190  -0.1840  0.4274  0.0020  -23.2336   0.0000   0.0643
 -17.500  -1.0966   0.01429   0.01030  -0.1877  0.3549  0.0021  -22.1087   0.0000   0.0540
 -17.000  -1.0435   0.01332   0.00930  -0.1893  0.3447  0.0022  -20.9696   0.0000   0.0442
 -16.500  -0.9888   0.01250   0.00843  -0.1908  0.3388  0.0024  -19.8357   0.0000   0.0332
 -16.000  -0.9330   0.01176   0.00766  -0.1921  0.3380  0.0025  -18.7149   0.0000   0.0206
 -14.000  -0.7052   0.00962   0.00526  -0.1962  0.2444  0.0032  -14.4622   0.0000  -0.0513
 -13.500  -0.6467   0.00922   0.00482  -0.1972  0.2265  0.0033  -13.5376   0.0000  -0.0781
 -13.000  -0.5876   0.00883   0.00439  -0.1982  0.2218  0.0035  -12.6357   0.0000  -0.1110
 -12.500  -0.5289   0.00852   0.00403  -0.1990  0.1962  0.0037  -11.7616   0.0000  -0.1508
 -12.000  -0.4699   0.00825   0.00369  -0.1999  0.1701  0.0038  -10.9121   0.0000  -0.2009
 -11.500  -0.4103   0.00798   0.00339  -0.2008  0.1702  0.0039  -10.0835   0.0000  -0.2665
 -11.000  -0.3506   0.00774   0.00313  -0.2016  0.1698  0.0039  -9.2863   0.0000  -0.3546
 -10.500  -0.2909   0.00753   0.00290  -0.2025  0.1692  0.0040  -8.5173   0.0000  -0.4792
  -9.500  -0.1718   0.00721   0.00249  -0.2040  0.1437  0.0041  -7.0709   0.0000  -0.9860
  -9.000  -0.1122   0.00707   0.00232  -0.2047  0.1334  0.0041  -6.3923   0.0000  -1.6443
  -8.500  -0.0523   0.00694   0.00217  -0.2055  0.1282  0.0041  -5.7390   0.0000  -3.8162
  -8.000   0.0075   0.00682   0.00203  -0.2063  0.1241  0.0042  -5.1152   0.0000  28.4553
  -7.500   0.0674   0.00672   0.00191  -0.2070  0.1238  0.0042  -4.5208   0.0000   3.4138
  -7.000   0.1272   0.00664   0.00181  -0.2077  0.1236  0.0043  -4.0495   0.0000   1.9283
  -6.500   0.1869   0.00656   0.00172  -0.2084  0.1233  0.0043  -3.6581   0.0000   1.3933
  -6.000   0.2466   0.00651   0.00165  -0.2091  0.1229  0.0043  -3.2820   0.0000   1.1177
  -5.500   0.3061   0.00646   0.00159  -0.2098  0.1224  0.0044  -2.9212   0.0000   0.9495
  -5.000   0.3648   0.00649   0.00157  -0.2102  0.1015  0.0044  -2.5778   0.0000   0.8371
  -4.500   0.4239   0.00649   0.00154  -0.2108  0.0985  0.0045  -2.2487   0.0000   0.7555
  -4.000   0.4829   0.00651   0.00153  -0.2113  0.0905  0.0045  -1.9354   0.0000   0.6939
  -3.500   0.5419   0.00652   0.00153  -0.2119  0.0858  0.0046  -1.6370   0.0000   0.6457
  -3.000   0.6008   0.00654   0.00154  -0.2124  0.0843  0.0050  -1.3543   0.0000   0.6070
  -2.500   0.6596   0.00657   0.00156  -0.2129  0.0841  0.0047  -1.0865   0.0000   0.5751
  -2.000   0.7182   0.00662   0.00159  -0.2134  0.0838  0.0057  -0.9597   0.0000   0.5485
  -1.500   0.7750   0.00680   0.00169  -0.2135  0.0587  0.0069  -1.0089   0.0000   0.5259
  -1.000   0.8330   0.00688   0.00176  -0.2139  0.0511  0.0080  -1.0611   0.0000   0.5064
  -0.500   0.8907   0.00699   0.00184  -0.2142  0.0483  0.0089  -1.1134   0.0000   0.4893
   0.000   0.9482   0.00710   0.00194  -0.2145  0.0456  0.0096  -1.1661   0.0000   0.4743
   0.500   1.0056   0.00721   0.00204  -0.2148  0.0430  0.0157  -1.2206   0.0000   0.4610
   1.000   1.0630   0.00731   0.00214  -0.2151  0.0457  0.0170  -1.2850   0.0000   0.4490
   1.500   1.1198   0.00745   0.00226  -0.2152  0.0444  0.0172  -1.3605   0.0000   0.4382
   2.000   1.1764   0.00760   0.00240  -0.2154  0.0425  0.0195  -1.4366   0.0000   0.4284
   2.500   1.2289   0.00809   0.00278  -0.2147  0.0023  0.0373  -1.5237   0.0000   0.4193
   3.500   1.3394   0.00852   0.00318  -0.2146  0.0014  0.0420  -1.7552   0.0000   0.4034
   4.000   1.3941   0.00876   0.00340  -0.2145  0.0016  0.0453  -1.8978   0.0000   0.3962
   4.500   1.4484   0.00901   0.00365  -0.2143  0.0013  0.0529  -2.0757   0.0000   0.3896
   5.000   1.5023   0.00928   0.00391  -0.2140  0.0013  0.0670  -2.2578   0.0000   0.3833
   5.500   1.5556   0.00957   0.00418  -0.2137  0.0013  0.0805  -2.4439   0.0000   0.3774
   6.000   1.6087   0.00986   0.00450  -0.2133  0.0012  0.1217  -2.6344   0.0000   0.3719
   6.500   1.6611   0.01018   0.00482  -0.2129  0.0012  0.1461  -2.8284   0.0000   0.3666
   7.000   1.7124   0.01053   0.00516  -0.2122  0.0012  0.1585  -3.0252   0.0000   0.3615
   9.500   1.9574   0.01260   0.00731  -0.2072  0.0012  0.3074  -4.2378   0.0000   0.3388
  10.000   2.0039   0.01308   0.00788  -0.2059  0.0011  0.3974  -4.8137   0.0000   0.3348
  10.500   2.0462   0.01365   0.00845  -0.2037  0.0011  0.4166  -5.3963   0.0000   0.3306
  11.000   2.0747   0.01429   0.00912  -0.1987  0.0011  0.4329  -5.9246   0.0000   0.3258
  11.500   2.1040   0.01505   0.00988  -0.1941  0.0011  0.4348  -6.4798   0.0000   0.3213
  12.000   2.1338   0.01592   0.01077  -0.1898  0.0010  0.4364  -7.0589   0.0000   0.3170
  12.500   2.1626   0.01692   0.01181  -0.1856  0.0010  0.4750  -7.6523   0.0000   0.3128
  13.000   2.1906   0.01807   0.01302  -0.1816  0.0010  0.5120  -8.2609   0.0000   0.3088
  13.500   2.2161   0.01943   0.01441  -0.1774  0.0009  0.5266  -8.8720   0.0000   0.3049
  14.000   2.2392   0.02104   0.01607  -0.1732  0.0009  0.5608  -9.4845   0.0000   0.3011
  14.500   2.2596   0.02290   0.01801  -0.1690  0.0009  0.6068  -10.0926   0.0000   0.2974
  15.000   2.2790   0.02505   0.02022  -0.1651  0.0008  0.6353  -10.7116   0.0000   0.2938
  15.500   2.2966   0.02755   0.02278  -0.1614  0.0008  0.6699  -11.3329   0.0000   0.2904
  16.500   2.2704   0.03856   0.03413  -0.1501  0.0015  0.7176  -12.0090   0.0000   0.2838
  17.000   2.2738   0.04310   0.03878  -0.1471  0.0018  0.7515  -12.5483   0.0000   0.2810
  17.500   2.2827   0.04765   0.04344  -0.1452  0.0021  0.8068  -13.1566   0.0000   0.2785
  18.000   2.2924   0.05342   0.04949  -0.1450  0.0027  1.0000  -13.7582   0.0000   0.2767
  18.500   2.2881   0.05978   0.05592  -0.1431  0.0030  1.0000  -14.2356   0.0000   0.2746
  19.000   2.2925   0.06505   0.06125  -0.1417  0.0034  1.0000  -14.8025   0.0000   0.2724
  19.500   2.2825   0.07242   0.06871  -0.1408  0.0036  1.0000  -15.2348   0.0000   0.2708


