XFLR5 v6.02 Beta

 Calculated polar for: WORTMANN FX 63-137

 1 1 Reynolds number fixed          Mach number fixed         

 xtrf =   1.000 (top)        1.000 (bottom)
 Mach =   0.000     Re =    72.750 e 6     Ncrit =   9.000

  alpha     CL        CD       CDp       CM    Top Xtr Bot Xtr   Cpmin    Chinge    XCp    
 ------- -------- --------- --------- -------- ------- ------- -------- --------- ---------
 -22.000  -1.3078   0.04295   0.03965  -0.1617  0.4016  0.0014  -29.0657   0.0000   0.0911
 -21.500  -1.3156   0.03646   0.03309  -0.1667  0.4014  0.0014  -28.8125   0.0000   0.0897
 -21.000  -1.3251   0.03017   0.02672  -0.1715  0.4014  0.0014  -28.5655   0.0000   0.0886
 -20.500  -1.3165   0.02604   0.02253  -0.1743  0.4013  0.0014  -27.9881   0.0000   0.0870
 -20.000  -1.3016   0.02250   0.01896  -0.1766  0.4012  0.0014  -27.3051   0.0000   0.0851
 -19.500  -1.2903   0.01936   0.01577  -0.1774  0.4011  0.0014  -26.6551   0.0000   0.0846
 -19.000  -1.2528   0.01678   0.01315  -0.1815  0.4010  0.0014  -25.6704   0.0000   0.0782
 -18.500  -1.2004   0.01457   0.01086  -0.1879  0.3732  0.0014  -24.5146   0.0000   0.0673
 -18.000  -1.1500   0.01361   0.00977  -0.1895  0.3058  0.0015  -23.3579   0.0000   0.0598
 -17.500  -1.0969   0.01280   0.00890  -0.1908  0.2970  0.0016  -22.1839   0.0000   0.0511
 -17.000  -1.0422   0.01208   0.00815  -0.1920  0.2897  0.0017  -21.0163   0.0000   0.0414
 -16.500  -0.9865   0.01143   0.00748  -0.1932  0.2826  0.0017  -19.8626   0.0000   0.0303
 -16.000  -0.9300   0.01085   0.00687  -0.1942  0.2786  0.0018  -18.7274   0.0000   0.0176
 -15.500  -0.8728   0.01032   0.00631  -0.1953  0.2783  0.0019  -17.6136   0.0000   0.0030
 -15.000  -0.8162   0.00989   0.00580  -0.1961  0.2369  0.0021  -16.5358   0.0000  -0.0133
 -14.500  -0.7582   0.00945   0.00533  -0.1970  0.2217  0.0022  -15.4727   0.0000  -0.0330
 -14.000  -0.6997   0.00904   0.00489  -0.1980  0.2210  0.0023  -14.4356   0.0000  -0.0562
 -13.500  -0.6415   0.00870   0.00449  -0.1988  0.1921  0.0024  -13.5147   0.0000  -0.0834
 -13.000  -0.5825   0.00836   0.00412  -0.1997  0.1842  0.0025  -12.6181   0.0000  -0.1168
 -12.000  -0.4641   0.00776   0.00344  -0.2015  0.1436  0.0029  -10.9010   0.0000  -0.2100
 -11.500  -0.4042   0.00746   0.00312  -0.2025  0.1448  0.0033  -10.0773   0.0000  -0.2784
 -11.000  -0.3444   0.00721   0.00285  -0.2033  0.1410  0.0036  -9.2810   0.0000  -0.3704
 -10.500  -0.2846   0.00700   0.00260  -0.2042  0.1363  0.0039  -8.5100   0.0000  -0.5013
 -10.000  -0.2247   0.00682   0.00241  -0.2050  0.1314  0.0040  -7.7676   0.0000  -0.7020
  -9.500  -0.1649   0.00667   0.00224  -0.2058  0.1263  0.0040  -7.0557   0.0000  -1.0484
  -9.000  -0.1051   0.00654   0.00209  -0.2065  0.1237  0.0041  -6.3737   0.0000  -1.7896
  -8.500  -0.0452   0.00642   0.00195  -0.2073  0.1234  0.0041  -5.7197   0.0000  -4.4966
  -8.000   0.0147   0.00632   0.00183  -0.2080  0.1231  0.0042  -5.0953   0.0000  14.8928
  -7.500   0.0745   0.00623   0.00173  -0.2087  0.1228  0.0042  -4.5006   0.0000   3.1357
  -7.000   0.1338   0.00619   0.00166  -0.2093  0.1041  0.0043  -4.0422   0.0000   1.8576
  -6.500   0.1933   0.00614   0.00158  -0.2100  0.1008  0.0043  -3.6506   0.0000   1.3634
  -6.000   0.2528   0.00611   0.00152  -0.2106  0.0979  0.0043  -3.2743   0.0000   1.1022
  -5.500   0.3122   0.00608   0.00147  -0.2112  0.0953  0.0044  -2.9131   0.0000   0.9405
  -5.000   0.3716   0.00606   0.00144  -0.2118  0.0923  0.0044  -2.5674   0.0000   0.8306
  -4.500   0.4309   0.00605   0.00142  -0.2124  0.0856  0.0044  -2.2372   0.0000   0.7511
  -4.000   0.4901   0.00605   0.00140  -0.2130  0.0842  0.0045  -1.9225   0.0000   0.6908
  -3.500   0.5492   0.00606   0.00141  -0.2135  0.0841  0.0045  -1.6238   0.0000   0.6435
  -3.000   0.6081   0.00608   0.00142  -0.2140  0.0840  0.0046  -1.3410   0.0000   0.6054
  -2.500   0.6669   0.00611   0.00143  -0.2145  0.0838  0.0046  -1.0736   0.0000   0.5740
  -2.000   0.7238   0.00630   0.00152  -0.2146  0.0470  0.0047  -0.9630   0.0000   0.5479
  -1.500   0.7821   0.00637   0.00158  -0.2150  0.0440  0.0054  -1.0135   0.0000   0.5254
  -1.000   0.8402   0.00644   0.00164  -0.2154  0.0417  0.0063  -1.0659   0.0000   0.5060
  -0.500   0.8981   0.00653   0.00171  -0.2158  0.0395  0.0070  -1.1186   0.0000   0.4891
   0.000   0.9559   0.00662   0.00179  -0.2161  0.0382  0.0075  -1.1715   0.0000   0.4742
   0.500   1.0134   0.00672   0.00188  -0.2164  0.0381  0.0094  -1.2266   0.0000   0.4610
   1.000   1.0710   0.00682   0.00198  -0.2167  0.0388  0.0169  -1.2920   0.0000   0.4491
   1.500   1.1280   0.00694   0.00208  -0.2170  0.0382  0.0171  -1.3678   0.0000   0.4383
   2.000   1.1831   0.00722   0.00229  -0.2168  0.0229  0.0201  -1.4424   0.0000   0.4285
   2.500   1.2379   0.00752   0.00256  -0.2166  0.0014  0.0370  -1.5331   0.0000   0.4195
   3.000   1.2936   0.00771   0.00274  -0.2166  0.0013  0.0379  -1.6494   0.0000   0.4113
   3.500   1.3490   0.00792   0.00292  -0.2166  0.0013  0.0386  -1.7675   0.0000   0.4037
   4.000   1.4040   0.00814   0.00313  -0.2165  0.0013  0.0411  -1.9149   0.0000   0.3966
   4.500   1.4586   0.00838   0.00335  -0.2164  0.0013  0.0466  -2.0939   0.0000   0.3899
   5.500   1.5667   0.00889   0.00384  -0.2159  0.0013  0.0718  -2.4651   0.0000   0.3779
   6.000   1.6203   0.00916   0.00412  -0.2156  0.0012  0.1038  -2.6570   0.0000   0.3723
   6.500   1.6730   0.00946   0.00441  -0.2152  0.0012  0.1154  -2.8523   0.0000   0.3670
   8.500   1.8771   0.01086   0.00577  -0.2125  0.0012  0.1530  -3.6669   0.0000   0.3480
   9.000   1.9267   0.01125   0.00619  -0.2116  0.0012  0.2080  -3.9469   0.0000   0.3437
  10.000   2.0219   0.01212   0.00710  -0.2092  0.0012  0.2778  -4.9237   0.0000   0.3354
  10.500   2.0674   0.01261   0.00762  -0.2076  0.0011  0.3253  -5.5313   0.0000   0.3314
  11.000   2.1100   0.01316   0.00817  -0.2055  0.0011  0.3351  -6.1523   0.0000   0.3274
  11.500   2.1400   0.01376   0.00878  -0.2008  0.0011  0.3475  -6.7200   0.0000   0.3228
  13.000   2.2256   0.01628   0.01136  -0.1871  0.0009  0.3896  -8.5234   0.0000   0.3099
  14.000   2.2448   0.02066   0.01599  -0.1736  0.0017  0.4587  -9.4823   0.0000   0.3010
  15.000   2.2795   0.02481   0.02024  -0.1646  0.0023  0.4988  -10.7000   0.0000   0.2936
  16.000   2.3075   0.03044   0.02599  -0.1567  0.0032  0.5524  -11.8855   0.0000   0.2869
  16.500   2.3178   0.03385   0.02947  -0.1532  0.0036  0.5718  -12.4658   0.0000   0.2838
  17.000   2.3257   0.03772   0.03342  -0.1499  0.0039  0.6056  -13.0360   0.0000   0.2808
  17.500   2.3294   0.04202   0.03781  -0.1468  0.0044  0.6290  -13.5788   0.0000   0.2780
  18.000   2.3316   0.04695   0.04281  -0.1441  0.0046  0.6515  -14.1176   0.0000   0.2755
  18.500   2.3323   0.05240   0.04836  -0.1420  0.0046  0.6823  -14.6524   0.0000   0.2731
  19.000   2.3287   0.05857   0.05462  -0.1402  0.0046  0.7050  -15.1534   0.0000   0.2710
  19.500   2.3358   0.06363   0.05977  -0.1391  0.0047  0.7473  -15.7680   0.0000   0.2688
  20.000   2.3266   0.07089   0.06715  -0.1383  0.0047  0.7767  -16.2265   0.0000   0.2672
  20.500   2.3138   0.07874   0.07511  -0.1380  0.0047  0.8082  -16.6487   0.0000   0.2658
  21.000   2.2959   0.08724   0.08373  -0.1382  0.0047  0.8316  -17.0178   0.0000   0.2647


