XFLR5 v6.02 Beta

 Calculated polar for: WORTMANN FX 63-137

 1 1 Reynolds number fixed          Mach number fixed         

 xtrf =   1.000 (top)        1.000 (bottom)
 Mach =   0.000     Re =    40.500 e 6     Ncrit =   9.000

  alpha     CL        CD       CDp       CM    Top Xtr Bot Xtr   Cpmin    Chinge    XCp    
 ------- -------- --------- --------- -------- ------- ------- -------- --------- ---------
 -22.000  -1.1091   0.06903   0.06598  -0.1391  0.4897  0.0018  -25.1744   0.0000   0.0863
 -21.500  -1.1922   0.05166   0.04851  -0.1526  0.5309  0.0018  -26.4781   0.0000   0.0865
 -21.000  -1.2241   0.04173   0.03841  -0.1606  0.4990  0.0018  -26.7199   0.0000   0.0853
 -20.500  -1.2320   0.03532   0.03188  -0.1655  0.4818  0.0018  -26.4825   0.0000   0.0838
 -20.000  -1.2379   0.02933   0.02580  -0.1702  0.4748  0.0019  -26.1916   0.0000   0.0823
 -19.500  -1.2281   0.02519   0.02160  -0.1730  0.4693  0.0019  -25.6225   0.0000   0.0802
 -19.000  -1.2147   0.02144   0.01779  -0.1754  0.4667  0.0020  -24.9922   0.0000   0.0780
 -18.500  -1.1931   0.01849   0.01479  -0.1777  0.4658  0.0020  -24.2412   0.0000   0.0747
 -18.000  -1.1472   0.01598   0.01222  -0.1832  0.4654  0.0021  -23.2006   0.0000   0.0647
 -17.500  -1.0963   0.01444   0.01046  -0.1873  0.3656  0.0022  -22.0963   0.0000   0.0543
 -17.000  -1.0437   0.01346   0.00942  -0.1890  0.3528  0.0023  -20.9653   0.0000   0.0446
 -16.500  -0.9892   0.01261   0.00853  -0.1905  0.3432  0.0025  -19.8347   0.0000   0.0336
 -16.000  -0.9335   0.01186   0.00773  -0.1918  0.3387  0.0026  -18.7156   0.0000   0.0210
 -15.500  -0.8769   0.01117   0.00702  -0.1931  0.3381  0.0027  -17.6133   0.0000   0.0066
 -14.500  -0.7633   0.01012   0.00582  -0.1951  0.2781  0.0031  -15.4897   0.0000  -0.0286
 -14.000  -0.7057   0.00968   0.00531  -0.1960  0.2493  0.0033  -14.4627   0.0000  -0.0508
 -13.500  -0.6474   0.00929   0.00486  -0.1969  0.2314  0.0034  -13.5375   0.0000  -0.0775
 -13.000  -0.5884   0.00890   0.00444  -0.1980  0.2225  0.0036  -12.6344   0.0000  -0.1102
 -12.000  -0.4707   0.00833   0.00374  -0.1996  0.1712  0.0038  -10.9118   0.0000  -0.1996
 -11.500  -0.4112   0.00806   0.00344  -0.2005  0.1714  0.0039  -10.0835   0.0000  -0.2648
 -11.000  -0.3515   0.00782   0.00318  -0.2014  0.1700  0.0039  -9.2865   0.0000  -0.3524
 -10.500  -0.2917   0.00760   0.00294  -0.2023  0.1695  0.0040  -8.5178   0.0000  -0.4762
 -10.000  -0.2319   0.00740   0.00272  -0.2031  0.1688  0.0040  -7.7777   0.0000  -0.6642
  -9.500  -0.1726   0.00727   0.00253  -0.2038  0.1460  0.0041  -7.0712   0.0000  -0.9791
  -9.000  -0.1130   0.00714   0.00235  -0.2045  0.1356  0.0041  -6.3935   0.0000  -1.6282
  -8.500  -0.0532   0.00700   0.00219  -0.2053  0.1304  0.0041  -5.7405   0.0000  -3.7465
  -8.000   0.0067   0.00689   0.00206  -0.2061  0.1253  0.0042  -5.1168   0.0000  32.0556
  -7.500   0.0665   0.00678   0.00193  -0.2068  0.1239  0.0042  -4.5226   0.0000   3.4515
  -7.000   0.1263   0.00669   0.00183  -0.2075  0.1237  0.0043  -4.0501   0.0000   1.9380
  -6.500   0.1861   0.00662   0.00174  -0.2082  0.1234  0.0043  -3.6589   0.0000   1.3974
  -6.000   0.2457   0.00656   0.00167  -0.2089  0.1230  0.0043  -3.2830   0.0000   1.1198
  -5.500   0.3053   0.00652   0.00161  -0.2096  0.1225  0.0044  -2.9224   0.0000   0.9509
  -5.000   0.3640   0.00654   0.00158  -0.2101  0.1026  0.0044  -2.5786   0.0000   0.8379
  -4.500   0.4232   0.00654   0.00155  -0.2106  0.0996  0.0045  -2.2499   0.0000   0.7560
  -4.000   0.4821   0.00656   0.00154  -0.2111  0.0925  0.0045  -1.9368   0.0000   0.6943
  -3.500   0.5411   0.00658   0.00155  -0.2117  0.0866  0.0046  -1.6385   0.0000   0.6460
  -3.000   0.6000   0.00660   0.00156  -0.2122  0.0844  0.0051  -1.3559   0.0000   0.6072
  -2.500   0.6587   0.00663   0.00157  -0.2127  0.0841  0.0048  -1.0880   0.0000   0.5753
  -2.000   0.7173   0.00667   0.00161  -0.2132  0.0839  0.0058  -0.9591   0.0000   0.5486
  -1.500   0.7745   0.00683   0.00170  -0.2134  0.0643  0.0071  -1.0085   0.0000   0.5260
  -1.000   0.8322   0.00694   0.00177  -0.2137  0.0518  0.0082  -1.0605   0.0000   0.5064
  -0.500   0.8898   0.00704   0.00186  -0.2140  0.0495  0.0091  -1.1129   0.0000   0.4894
   0.000   0.9473   0.00715   0.00195  -0.2143  0.0467  0.0099  -1.1654   0.0000   0.4743
   0.500   1.0047   0.00727   0.00205  -0.2146  0.0440  0.0157  -1.2198   0.0000   0.4610
   1.000   1.0621   0.00737   0.00215  -0.2149  0.0466  0.0170  -1.2843   0.0000   0.4490
   1.500   1.1188   0.00751   0.00228  -0.2150  0.0452  0.0172  -1.3596   0.0000   0.4382
   2.000   1.1753   0.00766   0.00242  -0.2152  0.0433  0.0197  -1.4357   0.0000   0.4284
   2.500   1.2278   0.00816   0.00281  -0.2145  0.0025  0.0374  -1.5226   0.0000   0.4193
   3.500   1.3382   0.00859   0.00321  -0.2144  0.0014  0.0425  -1.7537   0.0000   0.4033
   4.000   1.3928   0.00884   0.00344  -0.2142  0.0017  0.0459  -1.8958   0.0000   0.3962
   5.000   1.5010   0.00936   0.00394  -0.2138  0.0013  0.0671  -2.2555   0.0000   0.3833
   5.500   1.5542   0.00965   0.00423  -0.2134  0.0013  0.0817  -2.4414   0.0000   0.3774
   6.000   1.6073   0.00994   0.00455  -0.2131  0.0012  0.1241  -2.6317   0.0000   0.3718
   6.500   1.6596   0.01027   0.00487  -0.2126  0.0012  0.1465  -2.8254   0.0000   0.3665
   7.000   1.7109   0.01062   0.00522  -0.2119  0.0012  0.1627  -3.0220   0.0000   0.3614
   7.500   1.7619   0.01098   0.00559  -0.2112  0.0012  0.1944  -3.2225   0.0000   0.3566
   8.000   1.8113   0.01139   0.00599  -0.2103  0.0012  0.1944  -3.4246   0.0000   0.3519
   8.500   1.8608   0.01179   0.00643  -0.2094  0.0012  0.2489  -3.6308   0.0000   0.3474
   9.000   1.9086   0.01224   0.00689  -0.2082  0.0012  0.2776  -3.8946   0.0000   0.3430
   9.500   1.9550   0.01272   0.00739  -0.2067  0.0012  0.3080  -4.2244   0.0000   0.3387
  11.000   2.0703   0.01444   0.00923  -0.1979  0.0011  0.4348  -5.8961   0.0000   0.3257
  11.500   2.1000   0.01521   0.01002  -0.1934  0.0011  0.4461  -6.4529   0.0000   0.3212
  12.000   2.1300   0.01610   0.01092  -0.1892  0.0010  0.4501  -7.0323   0.0000   0.3169
  12.500   2.1592   0.01711   0.01200  -0.1851  0.0010  0.4971  -7.6276   0.0000   0.3127
  13.000   2.1861   0.01831   0.01324  -0.1809  0.0010  0.5220  -8.2277   0.0000   0.3087
  13.500   2.2106   0.01972   0.01468  -0.1766  0.0009  0.5323  -8.8304   0.0000   0.3047
  14.000   2.2339   0.02135   0.01637  -0.1725  0.0009  0.5658  -9.4426   0.0000   0.3009
  14.500   2.2554   0.02322   0.01833  -0.1685  0.0009  0.6275  -10.0578   0.0000   0.2973
  15.000   2.2748   0.02540   0.02056  -0.1647  0.0009  0.6526  -10.6751   0.0000   0.2938
  15.500   2.2929   0.02790   0.02313  -0.1611  0.0008  0.6893  -11.2988   0.0000   0.2904
  16.000   2.3082   0.03077   0.02606  -0.1576  0.0007  0.7160  -11.9149   0.0000   0.2872
  19.000   2.2771   0.06707   0.06329  -0.1416  0.0030  1.0000  -14.6540   0.0000   0.2728
  19.500   2.2768   0.07308   0.06937  -0.1407  0.0033  1.0000  -15.1789   0.0000   0.2709


