XFLR5 v6.02 Beta

 Calculated polar for: WORTMANN FX 63-137

 1 1 Reynolds number fixed          Mach number fixed         

 xtrf =   1.000 (top)        1.000 (bottom)
 Mach =   0.000     Re =    40.750 e 6     Ncrit =   9.000

  alpha     CL        CD       CDp       CM    Top Xtr Bot Xtr   Cpmin    Chinge    XCp    
 ------- -------- --------- --------- -------- ------- ------- -------- --------- ---------
 -22.000  -1.1105   0.06884   0.06579  -0.1392  0.4883  0.0018  -25.2025   0.0000   0.0863
 -21.000  -1.2249   0.04164   0.03831  -0.1607  0.4972  0.0018  -26.7352   0.0000   0.0853
 -20.500  -1.2327   0.03523   0.03179  -0.1656  0.4803  0.0018  -26.4969   0.0000   0.0838
 -20.000  -1.2385   0.02927   0.02574  -0.1702  0.4736  0.0019  -26.2016   0.0000   0.0824
 -19.500  -1.2286   0.02512   0.02154  -0.1731  0.4683  0.0019  -25.6323   0.0000   0.0803
 -19.000  -1.2152   0.02140   0.01775  -0.1755  0.4666  0.0020  -24.9996   0.0000   0.0781
 -18.500  -1.1932   0.01846   0.01476  -0.1778  0.4658  0.0020  -24.2449   0.0000   0.0746
 -18.000  -1.1472   0.01594   0.01219  -0.1833  0.4653  0.0021  -23.2020   0.0000   0.0646
 -17.500  -1.0964   0.01443   0.01045  -0.1874  0.3644  0.0022  -22.0978   0.0000   0.0542
 -17.000  -1.0437   0.01345   0.00941  -0.1890  0.3520  0.0023  -20.9657   0.0000   0.0445
 -16.500  -0.9892   0.01260   0.00852  -0.1905  0.3424  0.0024  -19.8348   0.0000   0.0335
 -16.000  -0.9335   0.01185   0.00773  -0.1919  0.3386  0.0026  -18.7155   0.0000   0.0210
 -15.500  -0.8768   0.01117   0.00701  -0.1931  0.3381  0.0027  -17.6131   0.0000   0.0065
 -14.500  -0.7632   0.01011   0.00581  -0.1951  0.2780  0.0031  -15.4894   0.0000  -0.0286
 -14.000  -0.7056   0.00967   0.00530  -0.1961  0.2488  0.0033  -14.4626   0.0000  -0.0509
 -13.500  -0.6474   0.00928   0.00485  -0.1970  0.2309  0.0034  -13.5376   0.0000  -0.0775
 -13.000  -0.5883   0.00889   0.00443  -0.1980  0.2223  0.0036  -12.6346   0.0000  -0.1103
 -12.000  -0.4706   0.00832   0.00374  -0.1997  0.1709  0.0038  -10.9118   0.0000  -0.1997
 -11.500  -0.4111   0.00805   0.00344  -0.2006  0.1711  0.0039  -10.0835   0.0000  -0.2650
 -11.000  -0.3514   0.00781   0.00317  -0.2014  0.1700  0.0039  -9.2865   0.0000  -0.3526
 -10.500  -0.2916   0.00759   0.00293  -0.2023  0.1695  0.0040  -8.5177   0.0000  -0.4765
 -10.000  -0.2318   0.00740   0.00271  -0.2031  0.1688  0.0040  -7.7777   0.0000  -0.6647
  -9.500  -0.1725   0.00726   0.00252  -0.2038  0.1457  0.0041  -7.0712   0.0000  -0.9798
  -9.000  -0.1129   0.00713   0.00234  -0.2046  0.1353  0.0041  -6.3934   0.0000  -1.6298
  -8.500  -0.0531   0.00700   0.00219  -0.2053  0.1301  0.0041  -5.7403   0.0000  -3.7536
  -8.000   0.0068   0.00688   0.00205  -0.2061  0.1251  0.0042  -5.1166   0.0000  31.6417
  -7.500   0.0666   0.00678   0.00193  -0.2068  0.1239  0.0042  -4.5224   0.0000   3.4475
  -7.000   0.1264   0.00669   0.00182  -0.2075  0.1237  0.0043  -4.0501   0.0000   1.9370
  -6.500   0.1861   0.00661   0.00174  -0.2082  0.1234  0.0043  -3.6589   0.0000   1.3970
  -6.000   0.2458   0.00656   0.00166  -0.2089  0.1230  0.0043  -3.2829   0.0000   1.1196
  -5.500   0.3054   0.00651   0.00161  -0.2096  0.1224  0.0044  -2.9223   0.0000   0.9507
  -5.000   0.3641   0.00654   0.00158  -0.2101  0.1025  0.0044  -2.5785   0.0000   0.8378
  -4.500   0.4232   0.00654   0.00155  -0.2106  0.0995  0.0045  -2.2497   0.0000   0.7560
  -4.000   0.4822   0.00656   0.00154  -0.2112  0.0923  0.0045  -1.9366   0.0000   0.6943
  -3.500   0.5412   0.00657   0.00154  -0.2117  0.0865  0.0046  -1.6384   0.0000   0.6460
  -3.000   0.6000   0.00659   0.00155  -0.2122  0.0844  0.0051  -1.3557   0.0000   0.6072
  -2.500   0.6588   0.00662   0.00157  -0.2127  0.0841  0.0048  -1.0878   0.0000   0.5753
  -2.000   0.7174   0.00667   0.00160  -0.2132  0.0839  0.0058  -0.9592   0.0000   0.5486
  -1.500   0.7745   0.00683   0.00170  -0.2134  0.0636  0.0071  -1.0085   0.0000   0.5260
  -1.000   0.8323   0.00693   0.00177  -0.2137  0.0517  0.0082  -1.0605   0.0000   0.5064
  -0.500   0.8899   0.00703   0.00185  -0.2140  0.0494  0.0091  -1.1129   0.0000   0.4894
   0.000   0.9474   0.00715   0.00195  -0.2143  0.0465  0.0098  -1.1655   0.0000   0.4743
   1.000   1.0622   0.00736   0.00215  -0.2149  0.0465  0.0170  -1.2843   0.0000   0.4490
   1.500   1.1189   0.00750   0.00228  -0.2151  0.0451  0.0172  -1.3597   0.0000   0.4382
   2.000   1.1755   0.00765   0.00241  -0.2152  0.0432  0.0197  -1.4358   0.0000   0.4284
   2.500   1.2279   0.00815   0.00280  -0.2145  0.0024  0.0374  -1.5227   0.0000   0.4193
   3.500   1.3384   0.00859   0.00320  -0.2144  0.0014  0.0425  -1.7539   0.0000   0.4033
   4.000   1.3930   0.00883   0.00343  -0.2142  0.0017  0.0458  -1.8960   0.0000   0.3962
   4.500   1.4474   0.00908   0.00368  -0.2141  0.0014  0.0656  -2.0739   0.0000   0.3895
   5.000   1.5011   0.00935   0.00394  -0.2138  0.0013  0.0671  -2.2557   0.0000   0.3833
   5.500   1.5543   0.00964   0.00422  -0.2134  0.0013  0.0816  -2.4416   0.0000   0.3774
   6.000   1.6075   0.00994   0.00454  -0.2131  0.0012  0.1239  -2.6320   0.0000   0.3718
   6.500   1.6597   0.01026   0.00487  -0.2126  0.0012  0.1464  -2.8257   0.0000   0.3665
   7.000   1.7111   0.01061   0.00521  -0.2119  0.0012  0.1623  -3.0224   0.0000   0.3614
   7.500   1.7621   0.01097   0.00559  -0.2113  0.0012  0.1944  -3.2229   0.0000   0.3566
   8.000   1.8115   0.01138   0.00598  -0.2103  0.0012  0.1944  -3.4250   0.0000   0.3519
   8.500   1.8610   0.01178   0.00642  -0.2094  0.0012  0.2489  -3.6312   0.0000   0.3474
   9.000   1.9088   0.01223   0.00688  -0.2082  0.0012  0.2767  -3.8951   0.0000   0.3430
   9.500   1.9552   0.01271   0.00738  -0.2068  0.0012  0.3078  -4.2257   0.0000   0.3388
  11.000   2.0707   0.01442   0.00922  -0.1980  0.0011  0.4346  -5.8990   0.0000   0.3257
  11.500   2.1004   0.01519   0.01001  -0.1934  0.0011  0.4445  -6.4555   0.0000   0.3212
  12.000   2.1304   0.01608   0.01091  -0.1892  0.0010  0.4486  -7.0349   0.0000   0.3169
  13.500   2.2112   0.01969   0.01466  -0.1767  0.0009  0.5320  -8.8347   0.0000   0.3047
  14.000   2.2345   0.02132   0.01634  -0.1726  0.0009  0.5652  -9.4468   0.0000   0.3009
  14.500   2.2559   0.02319   0.01830  -0.1686  0.0009  0.6271  -10.0619   0.0000   0.2973
  15.000   2.2752   0.02536   0.02053  -0.1647  0.0009  0.6511  -10.6787   0.0000   0.2938
  15.500   2.2934   0.02786   0.02309  -0.1612  0.0008  0.6887  -11.3029   0.0000   0.2904
  16.000   2.3087   0.03073   0.02602  -0.1577  0.0007  0.7145  -11.9189   0.0000   0.2872
  17.000   2.2725   0.04335   0.03903  -0.1472  0.0016  0.7763  -12.5171   0.0000   0.2811
  17.500   2.2758   0.04857   0.04437  -0.1450  0.0019  0.8364  -13.0828   0.0000   0.2786
  18.000   2.2875   0.05396   0.05002  -0.1447  0.0025  1.0000  -13.7123   0.0000   0.2767
  18.500   2.2830   0.06035   0.05648  -0.1430  0.0028  1.0000  -14.1879   0.0000   0.2746
  19.000   2.2779   0.06697   0.06319  -0.1417  0.0030  1.0000  -14.6620   0.0000   0.2727
  19.500   2.2774   0.07301   0.06930  -0.1407  0.0034  1.0000  -15.1846   0.0000   0.2708


