XFLR5 v6.02 Beta

 Calculated polar for: WORTMANN FX 63-137

 1 1 Reynolds number fixed          Mach number fixed         

 xtrf =   1.000 (top)        1.000 (bottom)
 Mach =   0.000     Re =    61.750 e 6     Ncrit =   9.000

  alpha     CL        CD       CDp       CM    Top Xtr Bot Xtr   Cpmin    Chinge    XCp    
 ------- -------- --------- --------- -------- ------- ------- -------- --------- ---------
 -22.000  -1.2693   0.04770   0.04443  -0.1574  0.4243  0.0014  -28.3281   0.0000   0.0902
 -21.500  -1.2834   0.04029   0.03693  -0.1631  0.4199  0.0014  -28.2127   0.0000   0.0888
 -21.000  -1.2983   0.03314   0.02969  -0.1687  0.4158  0.0014  -28.0813   0.0000   0.0877
 -20.500  -1.2945   0.02844   0.02493  -0.1720  0.4122  0.0014  -27.5984   0.0000   0.0862
 -20.000  -1.2877   0.02401   0.02044  -0.1752  0.4081  0.0014  -27.0610   0.0000   0.0845
 -19.500  -1.2697   0.02088   0.01727  -0.1769  0.4034  0.0015  -26.3311   0.0000   0.0825
 -19.000  -1.2480   0.01806   0.01440  -0.1789  0.4019  0.0015  -25.5544   0.0000   0.0796
 -18.500  -1.2019   0.01567   0.01196  -0.1842  0.4012  0.0016  -24.4795   0.0000   0.0706
 -18.000  -1.1490   0.01413   0.01028  -0.1884  0.3386  0.0017  -23.3190   0.0000   0.0605
 -17.000  -1.0427   0.01247   0.00851  -0.1912  0.3041  0.0018  -21.0032   0.0000   0.0423
 -16.500  -0.9875   0.01179   0.00778  -0.1924  0.2970  0.0019  -19.8577   0.0000   0.0313
 -16.000  -0.9313   0.01117   0.00713  -0.1935  0.2900  0.0020  -18.7277   0.0000   0.0187
 -15.500  -0.8743   0.01060   0.00654  -0.1946  0.2857  0.0021  -17.6174   0.0000   0.0042
 -14.500  -0.7599   0.00967   0.00549  -0.1964  0.2266  0.0024  -15.4810   0.0000  -0.0315
 -14.000  -0.7015   0.00924   0.00502  -0.1974  0.2218  0.0025  -14.4450   0.0000  -0.0546
 -13.000  -0.5841   0.00851   0.00421  -0.1992  0.1940  0.0028  -12.6268   0.0000  -0.1150
 -11.000  -0.3462   0.00735   0.00291  -0.2029  0.1475  0.0038  -9.2832   0.0000  -0.3660
 -10.500  -0.2865   0.00716   0.00268  -0.2037  0.1417  0.0040  -8.5136   0.0000  -0.4944
 -10.000  -0.2268   0.00699   0.00248  -0.2045  0.1365  0.0040  -7.7731   0.0000  -0.6908
  -9.500  -0.1670   0.00683   0.00231  -0.2052  0.1313  0.0041  -7.0619   0.0000  -1.0286
  -9.000  -0.1072   0.00670   0.00215  -0.2060  0.1240  0.0041  -6.3804   0.0000  -1.7441
  -8.500  -0.0473   0.00658   0.00201  -0.2068  0.1237  0.0041  -5.7265   0.0000  -4.2711
  -8.000   0.0125   0.00647   0.00189  -0.2075  0.1234  0.0042  -5.1021   0.0000  17.3434
  -7.500   0.0723   0.00638   0.00178  -0.2082  0.1231  0.0042  -4.5074   0.0000   3.2135
  -7.000   0.1321   0.00630   0.00169  -0.2089  0.1228  0.0043  -4.0436   0.0000   1.8745
  -6.000   0.2508   0.00624   0.00156  -0.2101  0.1008  0.0043  -3.2774   0.0000   1.1071
  -5.500   0.3102   0.00621   0.00151  -0.2107  0.0979  0.0044  -2.9167   0.0000   0.9436
  -5.000   0.3695   0.00620   0.00148  -0.2113  0.0953  0.0044  -2.5712   0.0000   0.8326
  -4.500   0.4288   0.00619   0.00145  -0.2119  0.0905  0.0045  -2.2409   0.0000   0.7524
  -4.000   0.4879   0.00619   0.00144  -0.2125  0.0843  0.0045  -1.9265   0.0000   0.6917
  -3.500   0.5470   0.00620   0.00144  -0.2130  0.0842  0.0045  -1.6279   0.0000   0.6442
  -3.000   0.6059   0.00622   0.00145  -0.2135  0.0841  0.0046  -1.3450   0.0000   0.6059
  -2.500   0.6647   0.00625   0.00147  -0.2140  0.0839  0.0046  -1.0775   0.0000   0.5743
  -2.000   0.7219   0.00642   0.00155  -0.2142  0.0513  0.0050  -0.9618   0.0000   0.5481
  -1.500   0.7799   0.00650   0.00161  -0.2146  0.0470  0.0058  -1.0121   0.0000   0.5256
  -1.000   0.8379   0.00658   0.00168  -0.2149  0.0444  0.0068  -1.0644   0.0000   0.5062
  -0.500   0.8958   0.00667   0.00175  -0.2153  0.0420  0.0075  -1.1170   0.0000   0.4892
   0.000   0.9535   0.00677   0.00184  -0.2156  0.0398  0.0081  -1.1698   0.0000   0.4743
   1.000   1.0685   0.00697   0.00203  -0.2162  0.0408  0.0170  -1.2899   0.0000   0.4491
   1.500   1.1255   0.00709   0.00214  -0.2165  0.0398  0.0171  -1.3655   0.0000   0.4383
   2.000   1.1821   0.00724   0.00227  -0.2166  0.0375  0.0211  -1.4418   0.0000   0.4285
   2.500   1.2352   0.00769   0.00263  -0.2160  0.0016  0.0372  -1.5303   0.0000   0.4195
   4.000   1.4010   0.00833   0.00321  -0.2159  0.0013  0.0423  -1.9098   0.0000   0.3965
   4.500   1.4555   0.00857   0.00344  -0.2157  0.0013  0.0482  -2.0884   0.0000   0.3898
   6.000   1.6168   0.00937   0.00423  -0.2149  0.0012  0.1088  -2.6502   0.0000   0.3722
   6.500   1.6694   0.00968   0.00453  -0.2145  0.0012  0.1209  -2.8451   0.0000   0.3669
   7.000   1.7216   0.01000   0.00486  -0.2140  0.0012  0.1458  -3.0438   0.0000   0.3619
   7.500   1.7726   0.01035   0.00519  -0.2133  0.0012  0.1481  -3.2452   0.0000   0.3570
   8.000   1.8229   0.01072   0.00555  -0.2125  0.0012  0.1466  -3.4496   0.0000   0.3523
   8.500   1.8725   0.01111   0.00594  -0.2116  0.0012  0.1666  -3.6568   0.0000   0.3479
   9.000   1.9219   0.01151   0.00637  -0.2107  0.0012  0.2219  -3.9330   0.0000   0.3435
   9.500   1.9695   0.01195   0.00683  -0.2095  0.0012  0.2496  -4.3077   0.0000   0.3393
  10.000   2.0165   0.01241   0.00733  -0.2082  0.0011  0.3169  -4.8909   0.0000   0.3352
  11.000   2.1031   0.01349   0.00844  -0.2043  0.0011  0.3693  -6.1066   0.0000   0.3271
  11.500   2.1286   0.01413   0.00910  -0.1986  0.0011  0.3704  -6.6435   0.0000   0.3223
  12.000   2.1576   0.01490   0.00987  -0.1940  0.0010  0.3706  -7.2241   0.0000   0.3179
  12.500   2.1872   0.01577   0.01076  -0.1897  0.0010  0.3784  -7.8299   0.0000   0.3137
  13.000   2.2161   0.01677   0.01182  -0.1856  0.0010  0.4406  -8.4515   0.0000   0.3096
  13.500   2.2429   0.01796   0.01306  -0.1814  0.0009  0.4753  -9.0794   0.0000   0.3057
  15.000   2.2657   0.02587   0.02127  -0.1631  0.0017  0.5320  -10.5483   0.0000   0.2934
  15.500   2.2832   0.02840   0.02386  -0.1595  0.0022  0.5645  -11.1988   0.0000   0.2900
  16.000   2.2970   0.03142   0.02694  -0.1559  0.0026  0.5942  -11.7973   0.0000   0.2868
  16.500   2.3077   0.03491   0.03052  -0.1526  0.0029  0.6284  -12.3790   0.0000   0.2838
  17.500   2.3164   0.04346   0.03923  -0.1461  0.0038  0.6767  -13.4620   0.0000   0.2781
  18.000   2.3179   0.04859   0.04444  -0.1436  0.0041  0.6987  -13.9910   0.0000   0.2756
  18.500   2.3178   0.05430   0.05026  -0.1417  0.0043  0.7376  -14.5132   0.0000   0.2733


