XFLR5 v6.02 Beta

 Calculated polar for: WORTMANN FX 63-137

 1 1 Reynolds number fixed          Mach number fixed         

 xtrf =   1.000 (top)        1.000 (bottom)
 Mach =   0.000     Re =    54.500 e 6     Ncrit =   9.000

  alpha     CL        CD       CDp       CM    Top Xtr Bot Xtr   Cpmin    Chinge    XCp    
 ------- -------- --------- --------- -------- ------- ------- -------- --------- ---------
 -22.000  -1.2316   0.05247   0.04929  -0.1531  0.4660  0.0014  -27.6007   0.0000   0.0893
 -21.500  -1.2543   0.04385   0.04058  -0.1598  0.4657  0.0015  -27.6654   0.0000   0.0880
 -21.000  -1.2730   0.03600   0.03258  -0.1660  0.4334  0.0015  -27.6240   0.0000   0.0869
 -20.500  -1.2810   0.02984   0.02634  -0.1707  0.4300  0.0015  -27.3592   0.0000   0.0856
 -20.000  -1.2717   0.02574   0.02217  -0.1735  0.4258  0.0015  -26.7829   0.0000   0.0838
 -19.500  -1.2592   0.02191   0.01828  -0.1761  0.4213  0.0016  -26.1548   0.0000   0.0818
 -19.000  -1.2425   0.01907   0.01539  -0.1771  0.4163  0.0016  -25.4420   0.0000   0.0803
 -18.500  -1.2014   0.01650   0.01278  -0.1819  0.4096  0.0017  -24.4358   0.0000   0.0724
 -18.000  -1.1484   0.01456   0.01070  -0.1875  0.3614  0.0018  -23.2906   0.0000   0.0612
 -17.000  -1.0423   0.01273   0.00878  -0.1907  0.3378  0.0020  -20.9839   0.0000   0.0427
 -16.500  -0.9879   0.01204   0.00802  -0.1918  0.3086  0.0021  -19.8496   0.0000   0.0319
 -16.000  -0.9321   0.01140   0.00732  -0.1929  0.3015  0.0022  -18.7254   0.0000   0.0195
 -15.500  -0.8754   0.01080   0.00669  -0.1941  0.2969  0.0023  -17.6191   0.0000   0.0051
 -15.000  -0.8180   0.01026   0.00612  -0.1951  0.2848  0.0024  -16.5352   0.0000  -0.0116
 -14.500  -0.7612   0.00983   0.00559  -0.1959  0.2355  0.0026  -15.4870   0.0000  -0.0304
 -14.000  -0.7028   0.00938   0.00511  -0.1970  0.2262  0.0027  -14.4523   0.0000  -0.0534
 -13.500  -0.6441   0.00898   0.00468  -0.1980  0.2211  0.0028  -13.5280   0.0000  -0.0807
 -12.500  -0.5265   0.00830   0.00389  -0.1997  0.1701  0.0032  -11.7626   0.0000  -0.1540
 -12.000  -0.4669   0.00798   0.00355  -0.2007  0.1691  0.0035  -10.9117   0.0000  -0.2056
 -11.500  -0.4071   0.00769   0.00323  -0.2017  0.1693  0.0038  -10.0812   0.0000  -0.2727
 -11.000  -0.3474   0.00745   0.00297  -0.2025  0.1690  0.0039  -9.2823   0.0000  -0.3628
 -10.500  -0.2880   0.00728   0.00275  -0.2033  0.1462  0.0040  -8.5160   0.0000  -0.4891
 -10.000  -0.2284   0.00711   0.00255  -0.2040  0.1407  0.0040  -7.7766   0.0000  -0.6825
  -9.500  -0.1687   0.00696   0.00237  -0.2048  0.1353  0.0041  -7.0661   0.0000  -1.0135
  -9.000  -0.1089   0.00682   0.00221  -0.2056  0.1253  0.0041  -6.3851   0.0000  -1.7094
  -8.500  -0.0490   0.00670   0.00206  -0.2063  0.1239  0.0041  -5.7313   0.0000  -4.1075
  -8.000   0.0109   0.00659   0.00194  -0.2071  0.1236  0.0042  -5.1070   0.0000  19.9457
  -7.500   0.0707   0.00649   0.00183  -0.2078  0.1233  0.0042  -4.5124   0.0000   3.2777
  -6.500   0.1902   0.00634   0.00165  -0.2092  0.1227  0.0043  -3.6540   0.0000   1.3778
  -6.000   0.2492   0.00634   0.00159  -0.2098  0.1031  0.0043  -3.2796   0.0000   1.1109
  -5.500   0.3086   0.00631   0.00154  -0.2104  0.1001  0.0044  -2.9192   0.0000   0.9459
  -5.000   0.3679   0.00630   0.00151  -0.2109  0.0973  0.0044  -2.5738   0.0000   0.8342
  -4.500   0.4271   0.00629   0.00148  -0.2115  0.0939  0.0045  -2.2437   0.0000   0.7535
  -4.000   0.4862   0.00630   0.00147  -0.2121  0.0850  0.0045  -1.9296   0.0000   0.6925
  -3.500   0.5453   0.00631   0.00147  -0.2126  0.0843  0.0046  -1.6310   0.0000   0.6447
  -3.000   0.6042   0.00633   0.00148  -0.2132  0.0842  0.0047  -1.3482   0.0000   0.6062
  -2.500   0.6630   0.00636   0.00150  -0.2136  0.0839  0.0046  -1.0805   0.0000   0.5746
  -2.000   0.7215   0.00641   0.00154  -0.2141  0.0827  0.0052  -0.9617   0.0000   0.5481
  -1.500   0.7783   0.00660   0.00164  -0.2142  0.0494  0.0062  -1.0110   0.0000   0.5257
  -1.000   0.8362   0.00669   0.00171  -0.2146  0.0466  0.0072  -1.0632   0.0000   0.5062
  -0.500   0.8940   0.00678   0.00179  -0.2149  0.0441  0.0079  -1.1157   0.0000   0.4892
   0.000   0.9517   0.00688   0.00187  -0.2152  0.0417  0.0086  -1.1685   0.0000   0.4743
   0.500   1.0093   0.00698   0.00197  -0.2155  0.0394  0.0154  -1.2234   0.0000   0.4610
   1.000   1.0666   0.00709   0.00207  -0.2158  0.0424  0.0170  -1.2882   0.0000   0.4490
   1.500   1.1236   0.00722   0.00218  -0.2160  0.0413  0.0171  -1.3638   0.0000   0.4383
   2.000   1.1802   0.00736   0.00231  -0.2162  0.0381  0.0217  -1.4401   0.0000   0.4285
   2.500   1.2330   0.00782   0.00268  -0.2156  0.0018  0.0372  -1.5281   0.0000   0.4194
   3.500   1.3438   0.00824   0.00306  -0.2155  0.0013  0.0401  -1.7609   0.0000   0.4035
   4.000   1.3987   0.00847   0.00327  -0.2154  0.0014  0.0434  -1.9057   0.0000   0.3964
   4.500   1.4531   0.00872   0.00351  -0.2152  0.0013  0.0494  -2.0841   0.0000   0.3897
   5.000   1.5073   0.00897   0.00376  -0.2150  0.0013  0.0667  -2.2670   0.0000   0.3835
   5.500   1.5607   0.00925   0.00402  -0.2147  0.0013  0.0763  -2.4537   0.0000   0.3776
   6.000   1.6140   0.00954   0.00432  -0.2144  0.0012  0.1130  -2.6448   0.0000   0.3721
   7.000   1.7185   0.01018   0.00496  -0.2134  0.0012  0.1464  -3.0376   0.0000   0.3617
   7.500   1.7694   0.01054   0.00530  -0.2127  0.0012  0.1563  -3.2385   0.0000   0.3569
   8.000   1.8194   0.01092   0.00567  -0.2118  0.0012  0.1530  -3.4421   0.0000   0.3522
  10.000   2.0131   0.01262   0.00752  -0.2076  0.0011  0.3689  -4.8691   0.0000   0.3351
  10.500   2.0564   0.01316   0.00806  -0.2056  0.0011  0.3706  -5.4607   0.0000   0.3310
  11.000   2.0914   0.01376   0.00866  -0.2019  0.0011  0.3793  -6.0330   0.0000   0.3266
  11.500   2.1202   0.01444   0.00934  -0.1970  0.0011  0.3891  -6.5873   0.0000   0.3220
  12.000   2.1495   0.01523   0.01015  -0.1925  0.0010  0.3909  -7.1677   0.0000   0.3176
  13.000   2.2070   0.01721   0.01224  -0.1842  0.0010  0.4709  -8.3834   0.0000   0.3093
  13.500   2.2332   0.01847   0.01353  -0.1799  0.0009  0.4978  -9.0044   0.0000   0.3054
  14.000   2.2569   0.01994   0.01502  -0.1756  0.0009  0.4997  -9.6258   0.0000   0.3015
  14.500   2.2791   0.02161   0.01675  -0.1714  0.0008  0.5444  -10.2539   0.0000   0.2978
  16.000   2.2824   0.03274   0.02826  -0.1548  0.0021  0.6287  -11.6681   0.0000   0.2868
  16.500   2.2928   0.03634   0.03193  -0.1516  0.0024  0.6560  -12.2497   0.0000   0.2838
  17.000   2.2988   0.04041   0.03609  -0.1484  0.0027  0.6880  -12.8004   0.0000   0.2809
  17.500   2.3001   0.04531   0.04108  -0.1455  0.0033  0.7084  -13.3152   0.0000   0.2782
  18.000   2.3093   0.04977   0.04563  -0.1435  0.0037  0.7486  -13.9123   0.0000   0.2757
  18.500   2.3085   0.05570   0.05168  -0.1418  0.0040  0.7970  -14.4264   0.0000   0.2736
  19.000   2.3053   0.06222   0.05832  -0.1406  0.0042  0.8421  -14.9236   0.0000   0.2717
  19.500   2.3062   0.06962   0.06597  -0.1413  0.0043  1.0000  -15.4690   0.0000   0.2704


