XFLR5 v6.02 Beta

 Calculated polar for: WORTMANN FX 63-137

 1 1 Reynolds number fixed          Mach number fixed         

 xtrf =   1.000 (top)        1.000 (bottom)
 Mach =   0.000     Re =    19.500 e 6     Ncrit =   9.000

  alpha     CL        CD       CDp       CM    Top Xtr Bot Xtr   Cpmin    Chinge    XCp    
 ------- -------- --------- --------- -------- ------- ------- -------- --------- ---------
 -19.500  -1.1612   0.03238   0.02911  -0.1659  0.6746  0.0030  -24.4264   0.0000   0.0772
 -19.000  -1.1546   0.02755   0.02419  -0.1698  0.6584  0.0031  -23.9490   0.0000   0.0744
 -18.500  -1.1440   0.02343   0.01990  -0.1728  0.6216  0.0031  -23.3921   0.0000   0.0717
 -18.000  -1.1289   0.02014   0.01652  -0.1746  0.6113  0.0032  -22.7512   0.0000   0.0694
 -17.500  -1.0893   0.01746   0.01378  -0.1792  0.5995  0.0033  -21.8156   0.0000   0.0604
 -17.000  -1.0383   0.01531   0.01144  -0.1851  0.5530  0.0034  -20.7574   0.0000   0.0473
 -16.500  -0.9886   0.01433   0.01026  -0.1868  0.4830  0.0034  -19.6933   0.0000   0.0372
 -16.000  -0.9345   0.01344   0.00931  -0.1884  0.4673  0.0035  -18.5962   0.0000   0.0249
 -15.500  -0.8789   0.01266   0.00847  -0.1899  0.4653  0.0035  -17.5071   0.0000   0.0108
 -15.000  -0.8224   0.01197   0.00774  -0.1912  0.4647  0.0036  -16.4347   0.0000  -0.0054
 -14.500  -0.7671   0.01145   0.00710  -0.1921  0.4273  0.0037  -15.4024   0.0000  -0.0232
 -13.500  -0.6545   0.01058   0.00597  -0.1937  0.3371  0.0037  -13.4094   0.0000  -0.0690
 -13.000  -0.5972   0.01021   0.00549  -0.1946  0.3032  0.0038  -12.5069   0.0000  -0.0992
 -12.500  -0.5387   0.00983   0.00505  -0.1955  0.2912  0.0038  -11.6310   0.0000  -0.1370
 -12.000  -0.4797   0.00947   0.00464  -0.1965  0.2785  0.0039  -10.7741   0.0000  -0.1847
 -11.500  -0.4204   0.00915   0.00429  -0.1975  0.2780  0.0040  -9.9139   0.0000  -0.2462
 -11.000  -0.3622   0.00894   0.00397  -0.1982  0.2424  0.0040  -9.1112   0.0000  -0.3256
 -10.500  -0.3030   0.00870   0.00366  -0.1990  0.2207  0.0041  -8.3273   0.0000  -0.4384
  -9.500  -0.1844   0.00828   0.00311  -0.2007  0.1886  0.0041  -6.8672   0.0000  -0.8833
  -9.000  -0.1244   0.00806   0.00285  -0.2016  0.1734  0.0042  -6.2383   0.0000  -1.4314
  -8.500  -0.0644   0.00787   0.00263  -0.2024  0.1698  0.0042  -5.5882   0.0000  -3.0026
  -8.000  -0.0044   0.00770   0.00243  -0.2033  0.1690  0.0042  -4.9793   0.0000  -47.8419
  -7.500   0.0557   0.00755   0.00226  -0.2041  0.1682  0.0043  -4.4137   0.0000   4.0232
  -7.000   0.1148   0.00750   0.00213  -0.2048  0.1453  0.0043  -3.9637   0.0000   2.0836
  -6.500   0.1747   0.00740   0.00201  -0.2055  0.1404  0.0043  -3.6239   0.0000   1.4566
  -5.500   0.2940   0.00726   0.00183  -0.2069  0.1298  0.0044  -2.9141   0.0000   0.9688
  -5.000   0.3535   0.00722   0.00177  -0.2076  0.1246  0.0044  -2.5771   0.0000   0.8485
  -4.500   0.4129   0.00718   0.00173  -0.2083  0.1238  0.0045  -2.2572   0.0000   0.7628
  -4.000   0.4722   0.00717   0.00170  -0.2089  0.1233  0.0045  -1.9474   0.0000   0.6988
  -3.500   0.5312   0.00717   0.00170  -0.2094  0.1218  0.0046  -1.6513   0.0000   0.6491
  -3.000   0.5886   0.00732   0.00174  -0.2097  0.0971  0.0071  -1.3737   0.0000   0.6098
  -2.500   0.6472   0.00736   0.00177  -0.2102  0.0937  0.0080  -1.1062   0.0000   0.5771
  -2.000   0.7055   0.00741   0.00180  -0.2106  0.0879  0.0083  -0.9517   0.0000   0.5499
  -1.000   0.8222   0.00752   0.00191  -0.2115  0.0839  0.0151  -1.0537   0.0000   0.5069
  -0.500   0.8799   0.00761   0.00199  -0.2119  0.0831  0.0155  -1.1061   0.0000   0.4896
   0.000   0.9375   0.00771   0.00208  -0.2122  0.0823  0.0157  -1.1587   0.0000   0.4745
   0.500   0.9931   0.00797   0.00226  -0.2121  0.0633  0.0161  -1.2109   0.0000   0.4610
   1.500   1.1075   0.00817   0.00247  -0.2127  0.0668  0.0179  -1.3496   0.0000   0.4380
   2.000   1.1628   0.00842   0.00266  -0.2126  0.0575  0.0232  -1.4245   0.0000   0.4281
   3.000   1.2684   0.00930   0.00337  -0.2114  0.0035  0.0398  -1.6176   0.0000   0.4106
   3.500   1.3228   0.00955   0.00362  -0.2112  0.0029  0.0496  -1.7338   0.0000   0.4028
   4.000   1.3772   0.00981   0.00388  -0.2111  0.0034  0.0653  -1.8684   0.0000   0.3957
   4.500   1.4306   0.01011   0.00416  -0.2107  0.0027  0.0673  -2.0442   0.0000   0.3889
   5.000   1.4836   0.01042   0.00447  -0.2103  0.0020  0.0813  -2.2237   0.0000   0.3826
   5.500   1.5362   0.01074   0.00479  -0.2098  0.0015  0.1089  -2.4073   0.0000   0.3767
   6.000   1.5895   0.01103   0.00518  -0.2096  0.0013  0.1945  -2.5965   0.0000   0.3711
   6.500   1.6406   0.01141   0.00555  -0.2089  0.0013  0.2166  -2.7870   0.0000   0.3658
   7.000   1.6912   0.01179   0.00597  -0.2082  0.0012  0.2529  -2.9812   0.0000   0.3607
   7.500   1.7417   0.01219   0.00642  -0.2075  0.0012  0.3197  -3.1793   0.0000   0.3559
   8.000   1.7881   0.01269   0.00687  -0.2059  0.0012  0.2817  -3.3746   0.0000   0.3510
   9.000   1.8831   0.01364   0.00798  -0.2036  0.0012  0.4320  -3.8202   0.0000   0.3421
   9.500   1.9255   0.01423   0.00859  -0.2014  0.0011  0.4539  -4.0863   0.0000   0.3376
  10.000   1.9574   0.01486   0.00930  -0.1971  0.0011  0.5132  -4.5399   0.0000   0.3328
  10.500   1.9888   0.01562   0.01009  -0.1929  0.0011  0.5258  -5.0451   0.0000   0.3282
  11.000   2.0198   0.01651   0.01101  -0.1888  0.0011  0.5436  -5.5703   0.0000   0.3237
  11.500   2.0495   0.01752   0.01207  -0.1847  0.0011  0.5694  -6.1086   0.0000   0.3193
  12.000   2.0780   0.01870   0.01330  -0.1808  0.0010  0.6038  -6.6646   0.0000   0.3152
  12.500   2.1049   0.02007   0.01474  -0.1768  0.0010  0.6387  -7.2356   0.0000   0.3111
  13.000   2.1301   0.02167   0.01643  -0.1730  0.0010  0.6865  -7.8082   0.0000   0.3072
  13.500   2.1508   0.02355   0.01837  -0.1688  0.0009  0.7092  -8.3683   0.0000   0.3034
  14.000   2.1719   0.02571   0.02060  -0.1651  0.0009  0.7497  -8.9478   0.0000   0.2998
  14.500   2.1923   0.02815   0.02315  -0.1619  0.0009  0.8066  -9.5392   0.0000   0.2964
  15.000   2.2154   0.03088   0.02615  -0.1597  0.0009  1.0000  -10.1665   0.0000   0.2934
  15.500   2.2296   0.03403   0.02935  -0.1564  0.0008  1.0000  -10.7415   0.0000   0.2903
  16.000   2.2410   0.03761   0.03299  -0.1533  0.0008  1.0000  -11.3074   0.0000   0.2873
  16.500   2.2488   0.04160   0.03703  -0.1503  0.0008  1.0000  -11.8553   0.0000   0.2844
  17.000   2.2543   0.04616   0.04166  -0.1476  0.0008  1.0000  -12.3941   0.0000   0.2817
  17.500   2.2647   0.05038   0.04594  -0.1455  0.0008  1.0000  -12.9878   0.0000   0.2791
  18.000   2.2674   0.05573   0.05136  -0.1436  0.0007  1.0000  -13.5232   0.0000   0.2768
  18.500   2.2659   0.06177   0.05748  -0.1420  0.0007  1.0000  -14.0266   0.0000   0.2747
  19.000   2.2614   0.06836   0.06417  -0.1409  0.0007  1.0000  -14.5065   0.0000   0.2729
  19.500   2.2534   0.07553   0.07143  -0.1402  0.0006  1.0000  -14.9573   0.0000   0.2713
  20.000   2.2544   0.08114   0.07711  -0.1395  0.0006  1.0000  -15.5040   0.0000   0.2694


