XFLR5 v6.02 Beta

 Calculated polar for: WORTMANN FX 63-137

 1 1 Reynolds number fixed          Mach number fixed         

 xtrf =   1.000 (top)        1.000 (bottom)
 Mach =   0.000     Re =    60.750 e 6     Ncrit =   9.000

  alpha     CL        CD       CDp       CM    Top Xtr Bot Xtr   Cpmin    Chinge    XCp    
 ------- -------- --------- --------- -------- ------- ------- -------- --------- ---------
 -25.500  -0.4850   0.24826   0.24601  -0.0323  0.3046  0.0013  -5.9301   0.0000   0.1343
 -25.000  -0.4680   0.24327   0.24099  -0.0364  0.3002  0.0013  -5.7047   0.0000   0.1235
 -22.500  -1.1969   0.06323   0.06012  -0.1449  0.4265  0.0014  -27.2657   0.0000   0.0905
 -22.000  -1.2518   0.04995   0.04671  -0.1554  0.4275  0.0014  -27.9946   0.0000   0.0897
 -21.500  -1.2811   0.04057   0.03721  -0.1628  0.4228  0.0014  -28.1685   0.0000   0.0887
 -21.000  -1.2963   0.03335   0.02990  -0.1685  0.4181  0.0014  -28.0453   0.0000   0.0876
 -20.500  -1.2927   0.02863   0.02512  -0.1718  0.4146  0.0014  -27.5672   0.0000   0.0862
 -20.000  -1.2862   0.02416   0.02058  -0.1751  0.4105  0.0015  -27.0358   0.0000   0.0844
 -19.500  -1.2682   0.02102   0.01741  -0.1768  0.4056  0.0015  -26.3062   0.0000   0.0824
 -19.000  -1.2474   0.01818   0.01452  -0.1787  0.4022  0.0015  -25.5415   0.0000   0.0797
 -18.500  -1.2019   0.01577   0.01205  -0.1839  0.4015  0.0016  -24.4748   0.0000   0.0708
 -18.000  -1.1489   0.01419   0.01034  -0.1883  0.3389  0.0017  -23.3160   0.0000   0.0606
 -17.500  -1.0961   0.01325   0.00937  -0.1899  0.3378  0.0017  -22.1508   0.0000   0.0518
 -17.000  -1.0427   0.01251   0.00854  -0.1911  0.3056  0.0018  -21.0015   0.0000   0.0423
 -16.500  -0.9876   0.01182   0.00781  -0.1923  0.2984  0.0019  -19.8568   0.0000   0.0314
 -16.000  -0.9314   0.01120   0.00716  -0.1934  0.2915  0.0020  -18.7276   0.0000   0.0188
 -15.500  -0.8745   0.01063   0.00656  -0.1945  0.2871  0.0022  -17.6177   0.0000   0.0043
 -15.000  -0.8170   0.01011   0.00600  -0.1955  0.2777  0.0023  -16.5312   0.0000  -0.0125
 -14.500  -0.7601   0.00970   0.00550  -0.1963  0.2278  0.0024  -15.4818   0.0000  -0.0314
 -14.000  -0.7016   0.00926   0.00503  -0.1973  0.2219  0.0026  -14.4460   0.0000  -0.0544
 -13.500  -0.6428   0.00886   0.00461  -0.1983  0.2209  0.0027  -13.5211   0.0000  -0.0819
 -13.000  -0.5842   0.00852   0.00421  -0.1992  0.1948  0.0028  -12.6276   0.0000  -0.1148
 -12.500  -0.5253   0.00820   0.00385  -0.2001  0.1695  0.0030  -11.7571   0.0000  -0.1556
 -10.500  -0.2867   0.00717   0.00269  -0.2036  0.1423  0.0040  -8.5139   0.0000  -0.4937
 -10.000  -0.2270   0.00700   0.00249  -0.2044  0.1370  0.0040  -7.7736   0.0000  -0.6897
  -9.500  -0.1672   0.00685   0.00232  -0.2052  0.1318  0.0041  -7.0625   0.0000  -1.0267
  -9.000  -0.1074   0.00671   0.00216  -0.2060  0.1240  0.0041  -6.3811   0.0000  -1.7395
  -8.500  -0.0475   0.00659   0.00202  -0.2067  0.1237  0.0041  -5.7271   0.0000  -4.2493
  -8.000   0.0123   0.00648   0.00190  -0.2074  0.1234  0.0042  -5.1028   0.0000  17.6398
  -7.500   0.0721   0.00639   0.00179  -0.2082  0.1231  0.0042  -4.5081   0.0000   3.2216
  -7.000   0.1319   0.00631   0.00169  -0.2089  0.1228  0.0043  -4.0439   0.0000   1.8768
  -6.500   0.1916   0.00625   0.00162  -0.2096  0.1226  0.0043  -3.6518   0.0000   1.3710
  -6.000   0.2506   0.00625   0.00156  -0.2101  0.1011  0.0043  -3.2777   0.0000   1.1076
  -5.500   0.3100   0.00623   0.00152  -0.2107  0.0982  0.0044  -2.9170   0.0000   0.9439
  -5.000   0.3693   0.00621   0.00148  -0.2113  0.0956  0.0044  -2.5715   0.0000   0.8328
  -4.500   0.4285   0.00620   0.00146  -0.2119  0.0910  0.0045  -2.2413   0.0000   0.7526
  -4.000   0.4877   0.00620   0.00145  -0.2124  0.0843  0.0045  -1.9269   0.0000   0.6918
  -3.500   0.5468   0.00621   0.00145  -0.2130  0.0842  0.0045  -1.6283   0.0000   0.6442
  -3.000   0.6057   0.00623   0.00146  -0.2135  0.0841  0.0046  -1.3454   0.0000   0.6059
  -2.500   0.6645   0.00626   0.00148  -0.2140  0.0839  0.0046  -1.0779   0.0000   0.5744
  -2.000   0.7217   0.00643   0.00156  -0.2142  0.0516  0.0050  -0.9616   0.0000   0.5481
  -1.500   0.7797   0.00651   0.00162  -0.2145  0.0473  0.0059  -1.0120   0.0000   0.5256
  -1.000   0.8377   0.00660   0.00168  -0.2149  0.0447  0.0069  -1.0642   0.0000   0.5062
  -0.500   0.8956   0.00669   0.00176  -0.2152  0.0423  0.0076  -1.1168   0.0000   0.4892
   0.000   0.9533   0.00678   0.00184  -0.2156  0.0400  0.0081  -1.1697   0.0000   0.4743
   1.000   1.0683   0.00698   0.00203  -0.2162  0.0410  0.0170  -1.2896   0.0000   0.4491
   1.500   1.1253   0.00711   0.00215  -0.2164  0.0400  0.0171  -1.3653   0.0000   0.4383
   2.000   1.1819   0.00726   0.00228  -0.2166  0.0375  0.0211  -1.4416   0.0000   0.4285
   2.500   1.2349   0.00771   0.00263  -0.2160  0.0016  0.0372  -1.5300   0.0000   0.4195
   3.500   1.3458   0.00812   0.00301  -0.2159  0.0013  0.0395  -1.7635   0.0000   0.4036
   4.000   1.4007   0.00835   0.00322  -0.2158  0.0013  0.0425  -1.9092   0.0000   0.3965
   4.500   1.4552   0.00859   0.00345  -0.2157  0.0013  0.0483  -2.0879   0.0000   0.3898
   6.000   1.6164   0.00939   0.00425  -0.2149  0.0012  0.1094  -2.6495   0.0000   0.3722
   6.500   1.6690   0.00970   0.00454  -0.2144  0.0012  0.1214  -2.8443   0.0000   0.3669
   7.000   1.7212   0.01002   0.00487  -0.2139  0.0012  0.1459  -3.0430   0.0000   0.3618
   7.500   1.7722   0.01037   0.00521  -0.2132  0.0012  0.1491  -3.2444   0.0000   0.3570
   8.000   1.8225   0.01075   0.00557  -0.2124  0.0012  0.1467  -3.4486   0.0000   0.3523
   8.500   1.8721   0.01114   0.00596  -0.2115  0.0012  0.1682  -3.6559   0.0000   0.3478
   9.000   1.9214   0.01154   0.00640  -0.2106  0.0012  0.2246  -3.9315   0.0000   0.3435
   9.500   1.9690   0.01198   0.00685  -0.2094  0.0012  0.2498  -4.3044   0.0000   0.3393
  10.000   2.0160   0.01244   0.00735  -0.2081  0.0011  0.3211  -4.8874   0.0000   0.3352
  10.500   2.0611   0.01294   0.00789  -0.2065  0.0011  0.3691  -5.4906   0.0000   0.3312
  11.000   2.1023   0.01352   0.00847  -0.2041  0.0011  0.3697  -6.1012   0.0000   0.3271
  11.500   2.1274   0.01417   0.00913  -0.1984  0.0011  0.3708  -6.6357   0.0000   0.3223
  12.000   2.1565   0.01494   0.00991  -0.1938  0.0010  0.3715  -7.2166   0.0000   0.3179
  12.500   2.1862   0.01582   0.01080  -0.1895  0.0010  0.3818  -7.8225   0.0000   0.3136
  13.000   2.2151   0.01682   0.01187  -0.1855  0.0010  0.4464  -8.4435   0.0000   0.3096
  13.500   2.2416   0.01803   0.01312  -0.1812  0.0009  0.4796  -9.0692   0.0000   0.3056
  15.000   2.2648   0.02594   0.02133  -0.1630  0.0016  0.5334  -10.5397   0.0000   0.2934
  15.500   2.2816   0.02854   0.02398  -0.1593  0.0021  0.5651  -11.1832   0.0000   0.2900
  16.000   2.2959   0.03152   0.02704  -0.1558  0.0025  0.5962  -11.7876   0.0000   0.2868
  16.500   2.3065   0.03502   0.03062  -0.1525  0.0029  0.6290  -12.3685   0.0000   0.2838
  17.000   2.3126   0.03897   0.03465  -0.1491  0.0032  0.6541  -12.9223   0.0000   0.2808
  17.500   2.3156   0.04360   0.03937  -0.1462  0.0038  0.6864  -13.4544   0.0000   0.2781
  18.000   2.3167   0.04875   0.04460  -0.1436  0.0041  0.7058  -13.9796   0.0000   0.2756
  19.000   2.3131   0.06086   0.05694  -0.1403  0.0045  0.7817  -14.9986   0.0000   0.2714


