XFLR5 v6.02 Beta

 Calculated polar for: WORTMANN FX 63-137

 1 1 Reynolds number fixed          Mach number fixed         

 xtrf =   1.000 (top)        1.000 (bottom)
 Mach =   0.000     Re =    16.500 e 6     Ncrit =   9.000

  alpha     CL        CD       CDp       CM    Top Xtr Bot Xtr   Cpmin    Chinge    XCp    
 ------- -------- --------- --------- -------- ------- ------- -------- --------- ---------
 -20.000  -1.1137   0.04447   0.04153  -0.1545  0.7382  0.0032  -23.8751   0.0000   0.0790
 -19.500  -1.1293   0.03623   0.03312  -0.1619  0.7209  0.0032  -23.8311   0.0000   0.0762
 -18.500  -1.1193   0.02598   0.02256  -0.1705  0.6620  0.0033  -22.9571   0.0000   0.0700
 -18.000  -1.1020   0.02239   0.01890  -0.1731  0.6588  0.0033  -22.3080   0.0000   0.0665
 -17.000  -1.0356   0.01687   0.01316  -0.1807  0.6207  0.0034  -20.6196   0.0000   0.0510
 -16.500  -0.9848   0.01517   0.01120  -0.1853  0.5466  0.0035  -19.5755   0.0000   0.0379
 -15.500  -0.8784   0.01335   0.00919  -0.1886  0.4991  0.0036  -17.4333   0.0000   0.0121
 -15.000  -0.8235   0.01265   0.00839  -0.1898  0.4831  0.0036  -16.3787   0.0000  -0.0035
 -14.500  -0.7670   0.01200   0.00769  -0.1911  0.4673  0.0037  -15.3349   0.0000  -0.0219
 -13.500  -0.1346   0.11231   0.10919  -0.1087  0.2201  0.0039  -3.6344   0.0000  -0.6394
 -13.000  -0.1256   0.10564   0.10249  -0.1117  0.1972  0.0040  -3.6249   0.0000  -0.7240
 -12.500  -0.1192   0.09812   0.09496  -0.1152  0.1930  0.0041  -3.6768   0.0000  -0.8024
 -12.000  -0.1201   0.08945   0.08630  -0.1193  0.1911  0.0041  -3.8465   0.0000  -0.8265
 -10.500  -0.3065   0.00906   0.00393  -0.1981  0.2281  0.0041  -8.1489   0.0000  -0.4274
 -10.000  -0.2467   0.00876   0.00359  -0.1991  0.2214  0.0042  -7.3983   0.0000  -0.5931
  -9.500  -0.1866   0.00848   0.00327  -0.2001  0.2200  0.0042  -6.6934   0.0000  -0.8664
  -9.000  -0.1277   0.00832   0.00300  -0.2008  0.1860  0.0043  -6.0671   0.0000  -1.3827
  -8.500  -0.0677   0.00812   0.00275  -0.2017  0.1771  0.0043  -5.4198   0.0000  -2.8341
  -8.000  -0.0076   0.00793   0.00252  -0.2026  0.1702  0.0044  -4.8043   0.0000  -27.3185
  -6.000   0.2315   0.00751   0.00196  -0.2056  0.1425  0.0044  -3.1885   0.0000   1.1590
  -5.000   0.3507   0.00740   0.00181  -0.2070  0.1315  0.0045  -2.5350   0.0000   0.8515
  -4.500   0.4102   0.00736   0.00178  -0.2076  0.1259  0.0045  -2.2538   0.0000   0.7647
  -3.000   0.5860   0.00747   0.00179  -0.2091  0.1009  0.0078  -1.3764   0.0000   0.6103
  -2.500   0.6445   0.00753   0.00181  -0.2096  0.0972  0.0088  -1.1121   0.0000   0.5776
  -2.000   0.7027   0.00759   0.00185  -0.2100  0.0915  0.0090  -0.9499   0.0000   0.5502
  -1.500   0.7612   0.00763   0.00189  -0.2105  0.0882  0.0147  -0.9996   0.0000   0.5270
  -1.000   0.8192   0.00771   0.00196  -0.2109  0.0843  0.0153  -1.0516   0.0000   0.5071
  -0.500   0.8769   0.00780   0.00204  -0.2112  0.0836  0.0156  -1.1039   0.0000   0.4897
   0.000   0.9344   0.00790   0.00213  -0.2115  0.0829  0.0158  -1.1565   0.0000   0.4745
   0.500   0.9916   0.00802   0.00224  -0.2118  0.0818  0.0162  -1.2099   0.0000   0.4610
   1.000   1.0490   0.00811   0.00234  -0.2121  0.0831  0.0172  -1.2728   0.0000   0.4489
   1.500   1.1057   0.00825   0.00247  -0.2123  0.0823  0.0184  -1.3480   0.0000   0.4380
   2.000   1.1599   0.00858   0.00272  -0.2120  0.0633  0.0242  -1.4218   0.0000   0.4280
   2.500   1.2137   0.00895   0.00302  -0.2116  0.0373  0.0380  -1.5086   0.0000   0.4189
   3.000   1.2647   0.00952   0.00346  -0.2107  0.0040  0.0419  -1.6130   0.0000   0.4105
   3.500   1.3190   0.00979   0.00372  -0.2105  0.0033  0.0516  -1.7289   0.0000   0.4027
   4.000   1.3733   0.01004   0.00398  -0.2103  0.0039  0.0661  -1.8619   0.0000   0.3955
   4.500   1.4264   0.01036   0.00428  -0.2099  0.0032  0.0710  -2.0366   0.0000   0.3888
   5.000   1.4795   0.01067   0.00460  -0.2095  0.0024  0.1015  -2.2162   0.0000   0.3825
   5.500   1.5316   0.01101   0.00494  -0.2089  0.0017  0.1177  -2.3987   0.0000   0.3765
   6.500   1.6363   0.01168   0.00574  -0.2081  0.0013  0.2498  -2.7782   0.0000   0.3657
   7.000   1.6872   0.01206   0.00617  -0.2075  0.0012  0.3066  -2.9726   0.0000   0.3606
   7.500   1.7376   0.01246   0.00665  -0.2068  0.0012  0.3820  -3.1704   0.0000   0.3558
   8.000   1.7826   0.01300   0.00711  -0.2049  0.0012  0.3215  -3.3625   0.0000   0.3508
   8.500   1.8318   0.01344   0.00769  -0.2041  0.0012  0.4345  -3.5663   0.0000   0.3464
   9.000   1.8761   0.01400   0.00827  -0.2023  0.0012  0.4632  -3.8000   0.0000   0.3419
   9.500   1.9129   0.01461   0.00891  -0.1990  0.0012  0.4895  -4.0505   0.0000   0.3371
  10.000   1.9460   0.01530   0.00967  -0.1950  0.0011  0.5305  -4.4730   0.0000   0.3324
  10.500   1.9770   0.01612   0.01051  -0.1908  0.0011  0.5399  -4.9723   0.0000   0.3277
  11.000   2.0084   0.01706   0.01149  -0.1869  0.0011  0.5661  -5.4955   0.0000   0.3233
  11.500   2.0371   0.01815   0.01265  -0.1828  0.0011  0.6074  -6.0240   0.0000   0.3189
  12.000   2.0649   0.01943   0.01399  -0.1788  0.0011  0.6423  -6.5669   0.0000   0.3148
  12.500   2.0918   0.02088   0.01553  -0.1750  0.0010  0.6850  -7.1400   0.0000   0.3108
  13.000   2.1156   0.02258   0.01728  -0.1711  0.0010  0.7087  -7.6996   0.0000   0.3069
  13.500   2.1375   0.02453   0.01932  -0.1672  0.0009  0.7481  -8.2641   0.0000   0.3032
  14.000   2.1591   0.02680   0.02169  -0.1639  0.0009  0.8042  -8.8429   0.0000   0.2997
  14.500   2.1829   0.02931   0.02447  -0.1615  0.0009  1.0000  -9.4563   0.0000   0.2965
  15.000   2.1988   0.03223   0.02744  -0.1581  0.0009  1.0000  -10.0239   0.0000   0.2933
  15.500   2.2120   0.03555   0.03081  -0.1549  0.0008  1.0000  -10.5870   0.0000   0.2901
  16.000   2.2236   0.03917   0.03448  -0.1519  0.0008  1.0000  -11.1493   0.0000   0.2872
  16.500   2.2305   0.04334   0.03872  -0.1490  0.0008  1.0000  -11.6851   0.0000   0.2844
  17.000   2.2357   0.04806   0.04351  -0.1465  0.0008  1.0000  -12.2171   0.0000   0.2818
  17.500   2.2387   0.05329   0.04883  -0.1444  0.0008  1.0000  -12.7380   0.0000   0.2794
  18.000   2.2388   0.05911   0.05473  -0.1427  0.0007  1.0000  -13.2424   0.0000   0.2772
  18.500   2.2463   0.06400   0.05968  -0.1413  0.0007  1.0000  -13.8248   0.0000   0.2749
  19.000   2.2411   0.07073   0.06650  -0.1403  0.0007  1.0000  -14.2936   0.0000   0.2732
  19.500   2.2331   0.07796   0.07383  -0.1398  0.0007  1.0000  -14.7368   0.0000   0.2717
  20.000   2.2199   0.08569   0.08168  -0.1396  0.0006  1.0000  -15.1315   0.0000   0.2704


