XFLR5 v6.02 Beta

 Calculated polar for: WORTMANN FX 63-137

 1 1 Reynolds number fixed          Mach number fixed         

 xtrf =   1.000 (top)        1.000 (bottom)
 Mach =   0.000     Re =    62.500 e 6     Ncrit =   9.000

  alpha     CL        CD       CDp       CM    Top Xtr Bot Xtr   Cpmin    Chinge    XCp    
 ------- -------- --------- --------- -------- ------- ------- -------- --------- ---------
 -22.500  -1.2251   0.05937   0.05623  -0.1482  0.4245  0.0014  -27.8285   0.0000   0.0910
 -22.000  -1.2713   0.04747   0.04419  -0.1576  0.4187  0.0014  -28.3662   0.0000   0.0902
 -21.500  -1.2852   0.04008   0.03672  -0.1633  0.4177  0.0014  -28.2465   0.0000   0.0889
 -21.000  -1.2997   0.03298   0.02953  -0.1688  0.4141  0.0014  -28.1070   0.0000   0.0878
 -20.500  -1.2958   0.02830   0.02479  -0.1721  0.4105  0.0014  -27.6219   0.0000   0.0863
 -20.000  -1.2887   0.02390   0.02033  -0.1753  0.4064  0.0014  -27.0793   0.0000   0.0845
 -19.500  -1.2709   0.02077   0.01715  -0.1770  0.4024  0.0015  -26.3506   0.0000   0.0826
 -19.000  -1.2484   0.01796   0.01430  -0.1791  0.4018  0.0015  -25.5642   0.0000   0.0795
 -18.500  -1.2018   0.01559   0.01188  -0.1844  0.4011  0.0016  -24.4828   0.0000   0.0704
 -18.000  -1.1490   0.01409   0.01025  -0.1885  0.3384  0.0016  -23.3213   0.0000   0.0604
 -17.500  -1.0967   0.01321   0.00930  -0.1900  0.3157  0.0017  -22.1627   0.0000   0.0519
 -17.000  -1.0427   0.01244   0.00848  -0.1913  0.3030  0.0018  -21.0045   0.0000   0.0422
 -16.500  -0.9875   0.01176   0.00776  -0.1924  0.2959  0.0019  -19.8582   0.0000   0.0312
 -16.000  -0.9312   0.01115   0.00711  -0.1935  0.2890  0.0020  -18.7277   0.0000   0.0186
 -15.500  -0.8742   0.01058   0.00652  -0.1946  0.2846  0.0021  -17.6171   0.0000   0.0041
 -14.500  -0.7598   0.00966   0.00547  -0.1964  0.2257  0.0024  -15.4804   0.0000  -0.0316
 -14.000  -0.7013   0.00922   0.00501  -0.1974  0.2217  0.0025  -14.4443   0.0000  -0.0547
 -13.000  -0.5840   0.00850   0.00420  -0.1993  0.1934  0.0028  -12.6262   0.0000  -0.1151
 -11.000  -0.3460   0.00734   0.00290  -0.2029  0.1464  0.0038  -9.2830   0.0000  -0.3663
 -10.500  -0.2864   0.00714   0.00267  -0.2037  0.1413  0.0040  -8.5133   0.0000  -0.4949
 -10.000  -0.2267   0.00697   0.00248  -0.2045  0.1361  0.0040  -7.7727   0.0000  -0.6917
  -9.500  -0.1669   0.00682   0.00231  -0.2053  0.1310  0.0041  -7.0615   0.0000  -1.0301
  -9.000  -0.1070   0.00669   0.00215  -0.2060  0.1239  0.0041  -6.3799   0.0000  -1.7474
  -8.500  -0.0472   0.00656   0.00201  -0.2068  0.1237  0.0041  -5.7260   0.0000  -4.2873
  -8.000   0.0127   0.00646   0.00189  -0.2075  0.1234  0.0042  -5.1016   0.0000  17.1313
  -7.500   0.0725   0.00637   0.00178  -0.2083  0.1231  0.0042  -4.5070   0.0000   3.2075
  -7.000   0.1323   0.00629   0.00169  -0.2090  0.1228  0.0043  -4.0433   0.0000   1.8728
  -6.500   0.1915   0.00626   0.00163  -0.2095  0.1047  0.0043  -3.6533   0.0000   1.3718
  -6.000   0.2509   0.00623   0.00156  -0.2102  0.1005  0.0043  -3.2772   0.0000   1.1067
  -5.500   0.3103   0.00620   0.00151  -0.2108  0.0977  0.0044  -2.9165   0.0000   0.9434
  -5.000   0.3697   0.00619   0.00147  -0.2114  0.0951  0.0044  -2.5709   0.0000   0.8325
  -4.500   0.4289   0.00618   0.00145  -0.2119  0.0901  0.0045  -2.2407   0.0000   0.7523
  -4.000   0.4881   0.00618   0.00144  -0.2125  0.0843  0.0045  -1.9262   0.0000   0.6917
  -3.500   0.5472   0.00619   0.00144  -0.2130  0.0842  0.0045  -1.6276   0.0000   0.6441
  -3.000   0.6061   0.00621   0.00145  -0.2136  0.0841  0.0046  -1.3447   0.0000   0.6058
  -2.500   0.6649   0.00624   0.00147  -0.2141  0.0839  0.0046  -1.0772   0.0000   0.5743
  -2.000   0.7220   0.00641   0.00155  -0.2142  0.0508  0.0049  -0.9619   0.0000   0.5481
  -1.500   0.7801   0.00649   0.00161  -0.2146  0.0468  0.0058  -1.0122   0.0000   0.5256
  -1.000   0.8381   0.00657   0.00168  -0.2150  0.0442  0.0068  -1.0645   0.0000   0.5061
  -0.500   0.8960   0.00666   0.00175  -0.2153  0.0418  0.0075  -1.1171   0.0000   0.4892
   0.000   0.9537   0.00676   0.00183  -0.2156  0.0396  0.0080  -1.1700   0.0000   0.4743
   0.500   1.0112   0.00686   0.00193  -0.2160  0.0382  0.0100  -1.2249   0.0000   0.4610
   1.000   1.0687   0.00696   0.00202  -0.2163  0.0406  0.0170  -1.2900   0.0000   0.4491
   1.500   1.1257   0.00708   0.00214  -0.2165  0.0397  0.0171  -1.3657   0.0000   0.4383
   2.000   1.1823   0.00723   0.00227  -0.2167  0.0374  0.0210  -1.4419   0.0000   0.4285
   2.500   1.2354   0.00768   0.00262  -0.2161  0.0016  0.0372  -1.5305   0.0000   0.4195
   3.500   1.3463   0.00809   0.00299  -0.2160  0.0013  0.0393  -1.7641   0.0000   0.4036
   4.000   1.4012   0.00831   0.00320  -0.2159  0.0013  0.0422  -1.9101   0.0000   0.3965
   4.500   1.4558   0.00856   0.00343  -0.2158  0.0013  0.0481  -2.0889   0.0000   0.3898
   5.500   1.5636   0.00908   0.00393  -0.2153  0.0013  0.0741  -2.4592   0.0000   0.3777
   6.000   1.6171   0.00936   0.00423  -0.2150  0.0012  0.1084  -2.6507   0.0000   0.3722
   6.500   1.6696   0.00966   0.00452  -0.2146  0.0012  0.1204  -2.8456   0.0000   0.3669
   7.000   1.7218   0.00998   0.00485  -0.2141  0.0012  0.1458  -3.0444   0.0000   0.3619
   7.500   1.7730   0.01033   0.00518  -0.2134  0.0012  0.1475  -3.2459   0.0000   0.3570
   8.000   1.8233   0.01070   0.00554  -0.2126  0.0012  0.1465  -3.4503   0.0000   0.3524
   8.500   1.8729   0.01109   0.00593  -0.2117  0.0012  0.1654  -3.6576   0.0000   0.3479
   9.000   1.9222   0.01149   0.00636  -0.2107  0.0012  0.2209  -3.9340   0.0000   0.3436
   9.500   1.9699   0.01193   0.00681  -0.2095  0.0012  0.2494  -4.3100   0.0000   0.3393
  10.000   2.0170   0.01239   0.00732  -0.2083  0.0011  0.3137  -4.8936   0.0000   0.3352
  10.500   2.0624   0.01288   0.00785  -0.2067  0.0011  0.3690  -5.4983   0.0000   0.3312
  11.000   2.1037   0.01346   0.00842  -0.2044  0.0011  0.3693  -6.1106   0.0000   0.3271
  11.500   2.1295   0.01410   0.00907  -0.1988  0.0011  0.3702  -6.6494   0.0000   0.3224
  12.000   2.1584   0.01486   0.00984  -0.1941  0.0010  0.3703  -7.2297   0.0000   0.3179
  12.500   2.1880   0.01574   0.01073  -0.1899  0.0010  0.3760  -7.8354   0.0000   0.3137
  13.000   2.2169   0.01673   0.01179  -0.1858  0.0010  0.4365  -8.4573   0.0000   0.3097
  13.500   2.2439   0.01792   0.01302  -0.1816  0.0009  0.4723  -9.0866   0.0000   0.3057
  15.000   2.2665   0.02582   0.02122  -0.1632  0.0017  0.5312  -10.5559   0.0000   0.2934
  15.500   2.2843   0.02831   0.02377  -0.1596  0.0022  0.5639  -11.2087   0.0000   0.2901
  16.000   2.2977   0.03134   0.02687  -0.1560  0.0026  0.5901  -11.8031   0.0000   0.2868
  16.500   2.3086   0.03483   0.03044  -0.1526  0.0030  0.6277  -12.3867   0.0000   0.2838
  17.000   2.3144   0.03878   0.03446  -0.1492  0.0033  0.6464  -12.9376   0.0000   0.2808
  17.500   2.3172   0.04336   0.03912  -0.1461  0.0039  0.6692  -13.4687   0.0000   0.2781
  18.000   2.3189   0.04847   0.04433  -0.1437  0.0042  0.6935  -14.0001   0.0000   0.2756
  18.500   2.3186   0.05415   0.05011  -0.1417  0.0044  0.7285  -14.5211   0.0000   0.2733
  19.000   2.3157   0.06051   0.05659  -0.1403  0.0045  0.7728  -15.0236   0.0000   0.2713
  19.500   2.3106   0.06729   0.06348  -0.1394  0.0046  0.8103  -15.5115   0.0000   0.2695
  20.000   2.3152   0.07300   0.06930  -0.1389  0.0046  0.8623  -16.1048   0.0000   0.2677


