XFLR5 v6.02 Beta

 Calculated polar for: WORTMANN FX 63-137

 1 1 Reynolds number fixed          Mach number fixed         

 xtrf =   1.000 (top)        1.000 (bottom)
 Mach =   0.000     Re =    49.750 e 6     Ncrit =   9.000

  alpha     CL        CD       CDp       CM    Top Xtr Bot Xtr   Cpmin    Chinge    XCp    
 ------- -------- --------- --------- -------- ------- ------- -------- --------- ---------
 -22.000  -1.1971   0.05711   0.05395  -0.1491  0.4667  0.0015  -26.9245   0.0000   0.0885
 -21.500  -1.2392   0.04576   0.04248  -0.1580  0.4663  0.0015  -27.3772   0.0000   0.0877
 -21.000  -1.2610   0.03725   0.03387  -0.1649  0.4659  0.0016  -27.4045   0.0000   0.0863
 -19.500  -1.2485   0.02303   0.01941  -0.1751  0.4344  0.0017  -25.9728   0.0000   0.0812
 -19.000  -1.2373   0.01979   0.01611  -0.1761  0.4298  0.0017  -25.3443   0.0000   0.0805
 -18.500  -1.1999   0.01716   0.01342  -0.1803  0.4234  0.0018  -24.3880   0.0000   0.0735
 -17.500  -1.0965   0.01385   0.00990  -0.1886  0.3388  0.0020  -22.1281   0.0000   0.0531
 -17.000  -1.0428   0.01297   0.00898  -0.1902  0.3379  0.0021  -20.9787   0.0000   0.0433
 -16.000  -0.9325   0.01155   0.00747  -0.1926  0.3141  0.0023  -18.7221   0.0000   0.0199
 -15.500  -0.8759   0.01093   0.00680  -0.1937  0.3056  0.0024  -17.6179   0.0000   0.0056
 -15.000  -0.8188   0.01038   0.00621  -0.1948  0.2978  0.0026  -16.5370   0.0000  -0.0110
 -14.500  -0.7621   0.00993   0.00566  -0.1956  0.2424  0.0027  -15.4903   0.0000  -0.0297
 -14.000  -0.7038   0.00948   0.00517  -0.1967  0.2330  0.0029  -14.4572   0.0000  -0.0525
 -13.500  -0.6451   0.00907   0.00473  -0.1977  0.2216  0.0030  -13.5329   0.0000  -0.0797
 -13.000  -0.5859   0.00868   0.00431  -0.1987  0.2209  0.0032  -12.6334   0.0000  -0.1129
 -12.500  -0.5275   0.00839   0.00394  -0.1995  0.1779  0.0034  -11.7655   0.0000  -0.1527
 -12.000  -0.4680   0.00807   0.00359  -0.2004  0.1695  0.0037  -10.9126   0.0000  -0.2039
 -11.500  -0.4083   0.00779   0.00329  -0.2013  0.1696  0.0039  -10.0822   0.0000  -0.2704
 -11.000  -0.3486   0.00756   0.00303  -0.2022  0.1692  0.0039  -9.2842   0.0000  -0.3597
 -10.000  -0.2295   0.00721   0.00260  -0.2037  0.1440  0.0040  -7.7783   0.0000  -0.6765
  -9.500  -0.1699   0.00706   0.00242  -0.2045  0.1384  0.0041  -7.0686   0.0000  -1.0027
  -9.000  -0.1101   0.00692   0.00225  -0.2053  0.1285  0.0041  -6.3882   0.0000  -1.6842
  -8.500  -0.0503   0.00679   0.00210  -0.2060  0.1241  0.0041  -5.7346   0.0000  -3.9925
  -8.000   0.0096   0.00668   0.00197  -0.2068  0.1238  0.0042  -5.1104   0.0000  22.4817
  -7.500   0.0694   0.00658   0.00186  -0.2075  0.1235  0.0042  -4.5159   0.0000   3.3278
  -7.000   0.1292   0.00650   0.00176  -0.2082  0.1233  0.0043  -4.0474   0.0000   1.9056
  -6.500   0.1889   0.00643   0.00167  -0.2089  0.1230  0.0043  -3.6557   0.0000   1.3836
  -6.000   0.2486   0.00637   0.00161  -0.2096  0.1225  0.0043  -3.2793   0.0000   1.1125
  -5.500   0.3074   0.00639   0.00157  -0.2101  0.1017  0.0044  -2.9208   0.0000   0.9476
  -5.000   0.3667   0.00637   0.00153  -0.2107  0.0988  0.0044  -2.5755   0.0000   0.8353
  -4.500   0.4259   0.00637   0.00150  -0.2112  0.0960  0.0045  -2.2457   0.0000   0.7543
  -4.000   0.4850   0.00638   0.00150  -0.2118  0.0864  0.0045  -1.9318   0.0000   0.6930
  -3.500   0.5440   0.00639   0.00149  -0.2123  0.0844  0.0046  -1.6333   0.0000   0.6451
  -3.000   0.6029   0.00641   0.00150  -0.2129  0.0842  0.0048  -1.3505   0.0000   0.6065
  -2.500   0.6617   0.00644   0.00152  -0.2134  0.0840  0.0046  -1.0828   0.0000   0.5748
  -2.000   0.7203   0.00648   0.00156  -0.2138  0.0834  0.0054  -0.9610   0.0000   0.5482
  -1.500   0.7771   0.00667   0.00166  -0.2139  0.0512  0.0065  -1.0102   0.0000   0.5258
  -1.000   0.8350   0.00676   0.00173  -0.2143  0.0483  0.0075  -1.0624   0.0000   0.5063
  -0.500   0.8927   0.00686   0.00181  -0.2146  0.0456  0.0083  -1.1148   0.0000   0.4893
   0.000   0.9502   0.00697   0.00190  -0.2149  0.0431  0.0089  -1.1675   0.0000   0.4743
   0.500   1.0079   0.00707   0.00199  -0.2152  0.0408  0.0156  -1.2223   0.0000   0.4610
   1.000   1.0652   0.00718   0.00209  -0.2155  0.0436  0.0170  -1.2870   0.0000   0.4490
   1.500   1.1221   0.00731   0.00221  -0.2157  0.0424  0.0172  -1.3625   0.0000   0.4383
   2.000   1.1788   0.00745   0.00234  -0.2159  0.0407  0.0192  -1.4388   0.0000   0.4285
   2.500   1.2315   0.00792   0.00272  -0.2153  0.0020  0.0373  -1.5264   0.0000   0.4194
   3.500   1.3422   0.00835   0.00310  -0.2152  0.0013  0.0408  -1.7588   0.0000   0.4034
   4.000   1.3969   0.00858   0.00332  -0.2151  0.0014  0.0441  -1.9027   0.0000   0.3963
   4.500   1.4513   0.00883   0.00356  -0.2149  0.0013  0.0504  -2.0809   0.0000   0.3897
   5.000   1.5054   0.00909   0.00381  -0.2147  0.0013  0.0668  -2.2635   0.0000   0.3834
   5.500   1.5588   0.00937   0.00408  -0.2143  0.0013  0.0778  -2.4500   0.0000   0.3775
   6.000   1.6120   0.00966   0.00439  -0.2140  0.0012  0.1162  -2.6409   0.0000   0.3720
   6.500   1.6647   0.00997   0.00471  -0.2136  0.0012  0.1454  -2.8355   0.0000   0.3667
   7.000   1.7162   0.01031   0.00504  -0.2129  0.0012  0.1486  -3.0329   0.0000   0.3616
   7.500   1.7670   0.01067   0.00539  -0.2122  0.0012  0.1625  -3.2335   0.0000   0.3568
   8.000   1.8168   0.01106   0.00576  -0.2113  0.0012  0.1590  -3.4366   0.0000   0.3521
   8.500   1.8665   0.01146   0.00618  -0.2104  0.0012  0.1964  -3.6434   0.0000   0.3476
   9.000   1.9153   0.01188   0.00663  -0.2094  0.0012  0.2501  -3.9139   0.0000   0.3433
   9.500   1.9620   0.01235   0.00710  -0.2080  0.0012  0.2708  -4.2647   0.0000   0.3390
  10.000   2.0094   0.01280   0.00765  -0.2069  0.0011  0.3705  -4.8472   0.0000   0.3350
  10.500   2.0523   0.01335   0.00820  -0.2048  0.0011  0.3842  -5.4352   0.0000   0.3308
  11.000   2.0842   0.01396   0.00883  -0.2005  0.0011  0.3954  -5.9867   0.0000   0.3262
  11.500   2.1141   0.01466   0.00955  -0.1959  0.0011  0.4085  -6.5471   0.0000   0.3217
  12.500   2.1723   0.01644   0.01138  -0.1872  0.0010  0.4348  -7.7225   0.0000   0.3132
  13.000   2.2008   0.01754   0.01255  -0.1832  0.0010  0.4978  -8.3374   0.0000   0.3091
  13.500   2.2264   0.01883   0.01385  -0.1789  0.0009  0.4999  -8.9520   0.0000   0.3052
  14.000   2.2508   0.02031   0.01537  -0.1747  0.0009  0.5217  -9.5765   0.0000   0.3013
  14.500   2.2731   0.02201   0.01714  -0.1707  0.0009  0.5649  -10.2032   0.0000   0.2976
  17.000   2.2902   0.04129   0.03696  -0.1479  0.0024  0.7065  -12.7233   0.0000   0.2809
  18.000   2.2962   0.05148   0.04737  -0.1433  0.0033  0.7875  -13.7915   0.0000   0.2760
  18.500   2.3028   0.05669   0.05270  -0.1420  0.0037  0.8465  -14.3736   0.0000   0.2738
  19.000   2.3057   0.06353   0.05978  -0.1422  0.0039  1.0000  -14.9296   0.0000   0.2722
  19.500   2.2965   0.07076   0.06709  -0.1411  0.0041  1.0000  -15.3736   0.0000   0.2705


