XFLR5 v6.02 Beta

 Calculated polar for: WORTMANN FX 63-137

 1 1 Reynolds number fixed          Mach number fixed         

 xtrf =   1.000 (top)        1.000 (bottom)
 Mach =   0.000     Re =    59.750 e 6     Ncrit =   9.000

  alpha     CL        CD       CDp       CM    Top Xtr Bot Xtr   Cpmin    Chinge    XCp    
 ------- -------- --------- --------- -------- ------- ------- -------- --------- ---------
 -23.000  -0.3988   0.22433   0.22191  -0.0518  0.2220  0.0013  -4.8912   0.0000   0.0713
 -22.500  -0.3808   0.22028   0.21785  -0.0555  0.2216  0.0013  -4.6976   0.0000   0.0550
 -22.000  -0.3625   0.21648   0.21403  -0.0592  0.2212  0.0013  -4.5079   0.0000   0.0371
 -21.500  -0.3450   0.21125   0.20878  -0.0628  0.2210  0.0013  -4.3303   0.0000   0.0177
 -21.000  -0.3279   0.20593   0.20340  -0.0662  0.1815  0.0013  -4.1598   0.0000  -0.0029
 -20.500  -0.3105   0.20050   0.19794  -0.0696  0.1698  0.0013  -3.9942   0.0000  -0.0264
 -20.000  -0.2931   0.19499   0.19242  -0.0730  0.1695  0.0013  -3.8361   0.0000  -0.0526
 -19.500  -0.2758   0.18941   0.18683  -0.0764  0.1698  0.0013  -3.6865   0.0000  -0.0818
 -19.000  -0.2586   0.18375   0.18116  -0.0796  0.1696  0.0013  -3.5468   0.0000  -0.1147
 -18.500  -0.2417   0.17798   0.17537  -0.0828  0.1693  0.0013  -3.4221   0.0000  -0.1516
 -18.000  -0.2252   0.17206   0.16944  -0.0860  0.1691  0.0014  -3.3200   0.0000  -0.1931
 -17.500  -0.3953   0.11992   0.11723  -0.1054  0.2209  0.0026  -9.0945   0.0000  -0.0636
 -17.000  -0.3882   0.11326   0.11051  -0.1091  0.1847  0.0027  -8.9985   0.0000  -0.0774
 -16.500  -0.3890   0.10545   0.10269  -0.1136  0.1707  0.0028  -9.0559   0.0000  -0.0870
 -15.500  -0.8746   0.01066   0.00658  -0.1944  0.2886  0.0022  -17.6180   0.0000   0.0044
 -15.000  -0.8171   0.01013   0.00602  -0.1955  0.2780  0.0023  -16.5318   0.0000  -0.0123
 -14.500  -0.7603   0.00972   0.00551  -0.1963  0.2289  0.0024  -15.4826   0.0000  -0.0312
 -14.000  -0.7018   0.00927   0.00504  -0.1973  0.2220  0.0026  -14.4470   0.0000  -0.0543
 -13.500  -0.6430   0.00888   0.00462  -0.1983  0.2209  0.0027  -13.5222   0.0000  -0.0817
 -13.000  -0.5844   0.00854   0.00423  -0.1991  0.1957  0.0029  -12.6285   0.0000  -0.1147
 -12.500  -0.5254   0.00822   0.00385  -0.2000  0.1695  0.0031  -11.7580   0.0000  -0.1553
 -11.000  -0.3462   0.00735   0.00292  -0.2029  0.1689  0.0039  -9.2803   0.0000  -0.3659
 -10.500  -0.2869   0.00719   0.00270  -0.2036  0.1429  0.0040  -8.5142   0.0000  -0.4930
 -10.000  -0.2272   0.00702   0.00250  -0.2044  0.1376  0.0040  -7.7742   0.0000  -0.6886
  -9.500  -0.1674   0.00687   0.00233  -0.2051  0.1323  0.0041  -7.0631   0.0000  -1.0247
  -9.000  -0.1076   0.00673   0.00217  -0.2059  0.1240  0.0041  -6.3817   0.0000  -1.7349
  -8.500  -0.0478   0.00661   0.00203  -0.2067  0.1237  0.0041  -5.7278   0.0000  -4.2273
  -8.000   0.0121   0.00650   0.00190  -0.2074  0.1235  0.0042  -5.1034   0.0000  17.9532
  -7.500   0.0719   0.00641   0.00180  -0.2081  0.1232  0.0042  -4.5088   0.0000   3.2300
  -6.500   0.1914   0.00626   0.00162  -0.2095  0.1226  0.0043  -3.6521   0.0000   1.3720
  -6.000   0.2504   0.00626   0.00157  -0.2100  0.1014  0.0043  -3.2780   0.0000   1.1081
  -5.500   0.3097   0.00624   0.00152  -0.2106  0.0985  0.0044  -2.9174   0.0000   0.9442
  -5.000   0.3691   0.00622   0.00149  -0.2112  0.0958  0.0044  -2.5719   0.0000   0.8330
  -4.500   0.4283   0.00622   0.00146  -0.2118  0.0914  0.0045  -2.2417   0.0000   0.7527
  -4.000   0.4875   0.00622   0.00145  -0.2124  0.0844  0.0045  -1.9273   0.0000   0.6919
  -3.500   0.5465   0.00623   0.00145  -0.2129  0.0842  0.0045  -1.6287   0.0000   0.6443
  -3.000   0.6055   0.00625   0.00146  -0.2134  0.0841  0.0046  -1.3459   0.0000   0.6060
  -2.500   0.6643   0.00628   0.00148  -0.2139  0.0839  0.0046  -1.0783   0.0000   0.5744
  -2.000   0.7214   0.00644   0.00156  -0.2141  0.0535  0.0050  -0.9615   0.0000   0.5481
  -1.500   0.7795   0.00653   0.00162  -0.2145  0.0476  0.0059  -1.0118   0.0000   0.5256
  -1.000   0.8375   0.00661   0.00169  -0.2148  0.0450  0.0069  -1.0641   0.0000   0.5062
  -0.500   0.8953   0.00670   0.00176  -0.2152  0.0425  0.0076  -1.1167   0.0000   0.4892
   0.000   0.9530   0.00680   0.00185  -0.2155  0.0403  0.0082  -1.1695   0.0000   0.4743
   0.500   1.0107   0.00689   0.00194  -0.2158  0.0383  0.0154  -1.2245   0.0000   0.4610
   1.000   1.0680   0.00700   0.00204  -0.2161  0.0412  0.0170  -1.2894   0.0000   0.4491
   1.500   1.1250   0.00713   0.00215  -0.2163  0.0402  0.0171  -1.3651   0.0000   0.4383
   2.500   1.2346   0.00773   0.00264  -0.2159  0.0016  0.0372  -1.5297   0.0000   0.4195
   4.000   1.4004   0.00837   0.00323  -0.2158  0.0013  0.0426  -1.9087   0.0000   0.3964
   4.500   1.4549   0.00861   0.00346  -0.2156  0.0013  0.0485  -2.0873   0.0000   0.3898
   6.000   1.6161   0.00941   0.00426  -0.2148  0.0012  0.1099  -2.6488   0.0000   0.3721
   6.500   1.6686   0.00972   0.00456  -0.2144  0.0012  0.1220  -2.8436   0.0000   0.3669
   7.000   1.7208   0.01004   0.00488  -0.2139  0.0012  0.1460  -3.0422   0.0000   0.3618
   7.500   1.7718   0.01040   0.00522  -0.2132  0.0012  0.1504  -3.2435   0.0000   0.3570
   8.000   1.8220   0.01077   0.00558  -0.2123  0.0012  0.1471  -3.4477   0.0000   0.3523
   8.500   1.8717   0.01117   0.00598  -0.2114  0.0012  0.1698  -3.6548   0.0000   0.3478
   9.500   1.9684   0.01201   0.00687  -0.2092  0.0012  0.2500  -4.3012   0.0000   0.3393
  10.000   2.0154   0.01247   0.00738  -0.2080  0.0011  0.3253  -4.8840   0.0000   0.3352
  11.000   2.1013   0.01356   0.00850  -0.2039  0.0011  0.3701  -6.0951   0.0000   0.3270
  11.500   2.1262   0.01421   0.00916  -0.1982  0.0011  0.3724  -6.6279   0.0000   0.3222
  12.000   2.1554   0.01498   0.00994  -0.1936  0.0010  0.3741  -7.2091   0.0000   0.3178
  12.500   2.1852   0.01587   0.01084  -0.1894  0.0010  0.3854  -7.8152   0.0000   0.3136
  13.000   2.2140   0.01688   0.01192  -0.1853  0.0010  0.4522  -8.4353   0.0000   0.3096
  13.500   2.2403   0.01810   0.01318  -0.1810  0.0009  0.4839  -9.0588   0.0000   0.3056
  14.000   2.2638   0.01954   0.01466  -0.1766  0.0008  0.4950  -9.6811   0.0000   0.3017
  15.000   2.2639   0.02601   0.02139  -0.1629  0.0016  0.5397  -10.5321   0.0000   0.2934
  15.500   2.2793   0.02871   0.02416  -0.1591  0.0020  0.5669  -11.1619   0.0000   0.2900
  16.000   2.2947   0.03162   0.02714  -0.1557  0.0024  0.6001  -11.7774   0.0000   0.2868
  16.500   2.3051   0.03514   0.03074  -0.1523  0.0028  0.6303  -12.3568   0.0000   0.2838
  18.000   2.3156   0.04891   0.04476  -0.1436  0.0040  0.7126  -13.9695   0.0000   0.2756
  18.500   2.3152   0.05468   0.05064  -0.1417  0.0043  0.7491  -14.4885   0.0000   0.2734
  19.000   2.3120   0.06107   0.05716  -0.1404  0.0044  0.7947  -14.9881   0.0000   0.2714
  19.500   2.3066   0.06798   0.06418  -0.1395  0.0045  0.8328  -15.4712   0.0000   0.2697


