XFLR5 v6.02 Beta

 Calculated polar for: WORTMANN FX 63-137

 1 1 Reynolds number fixed          Mach number fixed         

 xtrf =   1.000 (top)        1.000 (bottom)
 Mach =   0.000     Re =    37.500 e 6     Ncrit =   9.000

  alpha     CL        CD       CDp       CM    Top Xtr Bot Xtr   Cpmin    Chinge    XCp    
 ------- -------- --------- --------- -------- ------- ------- -------- --------- ---------
 -21.500  -1.1635   0.05557   0.05244  -0.1492  0.5312  0.0019  -25.9215   0.0000   0.0858
 -21.000  -1.2027   0.04449   0.04124  -0.1580  0.5310  0.0019  -26.3185   0.0000   0.0848
 -20.500  -1.2228   0.03631   0.03291  -0.1646  0.5021  0.0019  -26.3171   0.0000   0.0834
 -20.000  -1.2307   0.03010   0.02658  -0.1694  0.4905  0.0020  -26.0632   0.0000   0.0820
 -19.500  -1.2217   0.02588   0.02228  -0.1724  0.4848  0.0020  -25.5117   0.0000   0.0800
 -19.000  -1.2093   0.02200   0.01834  -0.1750  0.4785  0.0021  -24.9012   0.0000   0.0777
 -18.500  -1.1907   0.01901   0.01530  -0.1768  0.4715  0.0021  -24.1885   0.0000   0.0751
 -18.000  -1.1475   0.01643   0.01266  -0.1819  0.4664  0.0022  -23.1826   0.0000   0.0659
 -17.500  -1.0952   0.01460   0.01066  -0.1870  0.4008  0.0023  -22.0717   0.0000   0.0543
 -17.000  -1.0438   0.01362   0.00957  -0.1887  0.3633  0.0024  -20.9571   0.0000   0.0449
 -16.500  -0.9897   0.01275   0.00865  -0.1901  0.3538  0.0026  -19.8324   0.0000   0.0340
 -16.000  -0.9342   0.01198   0.00784  -0.1915  0.3443  0.0027  -18.7162   0.0000   0.0215
 -15.500  -0.8776   0.01128   0.00710  -0.1928  0.3391  0.0029  -17.6151   0.0000   0.0071
 -15.000  -0.8203   0.01067   0.00645  -0.1940  0.3382  0.0030  -16.5333   0.0000  -0.0095
 -14.500  -0.7641   0.01021   0.00588  -0.1948  0.2885  0.0032  -15.4914   0.0000  -0.0279
 -13.500  -0.6483   0.00938   0.00492  -0.1967  0.2378  0.0035  -13.5345   0.0000  -0.0766
 -13.000  -0.5894   0.00901   0.00450  -0.1976  0.2289  0.0037  -12.6316   0.0000  -0.1091
 -12.500  -0.5302   0.00867   0.00414  -0.1986  0.2216  0.0037  -11.7537   0.0000  -0.1490
 -12.000  -0.4718   0.00844   0.00381  -0.1993  0.1760  0.0038  -10.9110   0.0000  -0.1979
 -11.500  -0.4123   0.00817   0.00351  -0.2002  0.1768  0.0039  -10.0828   0.0000  -0.2627
 -11.000  -0.3526   0.00792   0.00324  -0.2011  0.1706  0.0039  -9.2862   0.0000  -0.3496
 -10.500  -0.2929   0.00770   0.00299  -0.2019  0.1698  0.0040  -8.5177   0.0000  -0.4724
 -10.000  -0.2330   0.00750   0.00277  -0.2028  0.1692  0.0040  -7.7778   0.0000  -0.6585
  -9.000  -0.1141   0.00722   0.00239  -0.2043  0.1384  0.0041  -6.3943   0.0000  -1.6079
  -8.500  -0.0543   0.00709   0.00223  -0.2050  0.1331  0.0041  -5.7418   0.0000  -3.6592
  -8.000   0.0056   0.00697   0.00209  -0.2058  0.1280  0.0042  -5.1184   0.0000  38.3977
  -7.500   0.0654   0.00686   0.00196  -0.2065  0.1241  0.0042  -4.5246   0.0000   3.5020
  -7.000   0.1252   0.00677   0.00185  -0.2073  0.1239  0.0043  -4.0508   0.0000   1.9509
  -6.500   0.1849   0.00670   0.00176  -0.2080  0.1236  0.0043  -3.6599   0.0000   1.4029
  -6.000   0.2446   0.00663   0.00169  -0.2086  0.1232  0.0043  -3.2842   0.0000   1.1227
  -5.500   0.3042   0.00659   0.00163  -0.2093  0.1227  0.0044  -2.9238   0.0000   0.9525
  -5.000   0.3637   0.00655   0.00158  -0.2100  0.1223  0.0044  -2.5774   0.0000   0.8382
  -4.500   0.4221   0.00661   0.00157  -0.2104  0.1010  0.0045  -2.2512   0.0000   0.7567
  -4.000   0.4810   0.00663   0.00156  -0.2109  0.0950  0.0045  -1.9385   0.0000   0.6948
  -3.500   0.5399   0.00665   0.00157  -0.2114  0.0879  0.0046  -1.6405   0.0000   0.6464
  -3.000   0.5988   0.00667   0.00158  -0.2120  0.0852  0.0052  -1.3579   0.0000   0.6074
  -2.500   0.6575   0.00670   0.00159  -0.2124  0.0842  0.0049  -1.0900   0.0000   0.5755
  -2.000   0.7161   0.00674   0.00163  -0.2129  0.0840  0.0060  -0.9584   0.0000   0.5487
  -1.500   0.7744   0.00681   0.00167  -0.2133  0.0825  0.0074  -1.0086   0.0000   0.5260
  -1.000   0.8310   0.00701   0.00179  -0.2134  0.0570  0.0085  -1.0597   0.0000   0.5065
   0.000   0.9464   0.00721   0.00197  -0.2141  0.0481  0.0150  -1.1648   0.0000   0.4744
   0.500   1.0035   0.00734   0.00208  -0.2143  0.0453  0.0158  -1.2189   0.0000   0.4610
   1.000   1.0609   0.00744   0.00217  -0.2146  0.0478  0.0170  -1.2833   0.0000   0.4490
   1.500   1.1176   0.00758   0.00230  -0.2148  0.0463  0.0172  -1.3585   0.0000   0.4382
   2.000   1.1741   0.00774   0.00244  -0.2149  0.0443  0.0200  -1.4345   0.0000   0.4284
   2.500   1.2264   0.00825   0.00284  -0.2142  0.0026  0.0374  -1.5211   0.0000   0.4192
   3.000   1.2817   0.00846   0.00304  -0.2142  0.0019  0.0381  -1.6344   0.0000   0.4109
   3.500   1.3367   0.00869   0.00325  -0.2141  0.0015  0.0432  -1.7517   0.0000   0.4033
   4.000   1.3913   0.00893   0.00348  -0.2139  0.0018  0.0466  -1.8931   0.0000   0.3961
   5.000   1.4993   0.00946   0.00399  -0.2134  0.0013  0.0673  -2.2523   0.0000   0.3832
   5.500   1.5525   0.00976   0.00428  -0.2131  0.0013  0.0833  -2.4381   0.0000   0.3773
   6.500   1.6576   0.01038   0.00494  -0.2122  0.0012  0.1488  -2.8215   0.0000   0.3664
   7.000   1.7090   0.01074   0.00529  -0.2115  0.0012  0.1683  -3.0180   0.0000   0.3614
   7.500   1.7597   0.01111   0.00567  -0.2108  0.0012  0.1949  -3.2179   0.0000   0.3565
   8.000   1.8089   0.01152   0.00607  -0.2098  0.0012  0.1945  -3.4195   0.0000   0.3518
   8.500   1.8583   0.01193   0.00652  -0.2089  0.0012  0.2520  -3.6252   0.0000   0.3473
   9.500   1.9519   0.01287   0.00750  -0.2062  0.0011  0.3153  -4.2070   0.0000   0.3386
  10.500   2.0365   0.01395   0.00871  -0.2018  0.0011  0.4351  -5.3371   0.0000   0.3302
  11.000   2.0651   0.01463   0.00939  -0.1969  0.0011  0.4494  -5.8622   0.0000   0.3254
  12.500   2.1529   0.01740   0.01226  -0.1841  0.0010  0.5006  -7.5829   0.0000   0.3125
  13.000   2.1797   0.01864   0.01354  -0.1799  0.0010  0.5307  -8.1802   0.0000   0.3085
  13.500   2.2047   0.02008   0.01502  -0.1758  0.0009  0.5561  -8.7848   0.0000   0.3046
  14.500   2.2492   0.02364   0.01872  -0.1678  0.0009  0.6362  -10.0073   0.0000   0.2972
  15.000   2.2692   0.02585   0.02100  -0.1641  0.0009  0.6739  -10.6275   0.0000   0.2937
  15.500   2.2869   0.02839   0.02360  -0.1605  0.0008  0.7016  -11.2456   0.0000   0.2903
  16.000   2.3030   0.03129   0.02658  -0.1572  0.0008  0.7430  -11.8668   0.0000   0.2872
  17.000   2.2677   0.04406   0.03972  -0.1472  0.0011  0.8224  -12.4947   0.0000   0.2812
  17.500   2.2775   0.04941   0.04537  -0.1463  0.0016  1.0000  -13.0626   0.0000   0.2791
  18.000   2.2796   0.05483   0.05086  -0.1444  0.0022  1.0000  -13.6370   0.0000   0.2768
  18.500   2.2754   0.06121   0.05732  -0.1427  0.0025  1.0000  -14.1152   0.0000   0.2747
  19.000   2.2685   0.06812   0.06431  -0.1415  0.0027  1.0000  -14.5703   0.0000   0.2729
  19.500   2.2576   0.07573   0.07202  -0.1408  0.0029  1.0000  -14.9883   0.0000   0.2714


