XFLR5 v6.02 Beta

 Calculated polar for: WORTMANN FX 63-137

 1 1 Reynolds number fixed          Mach number fixed         

 xtrf =   1.000 (top)        1.000 (bottom)
 Mach =   0.000     Re =    79.500 e 6     Ncrit =   9.000

  alpha     CL        CD       CDp       CM    Top Xtr Bot Xtr   Cpmin    Chinge    XCp    
 ------- -------- --------- --------- -------- ------- ------- -------- --------- ---------
 -22.000  -1.3201   0.04147   0.03818  -0.1631  0.4013  0.0014  -29.3014   0.0000   0.0914
 -21.500  -1.3275   0.03513   0.03177  -0.1679  0.4012  0.0014  -29.0337   0.0000   0.0901
 -21.000  -1.3342   0.02921   0.02577  -0.1724  0.4012  0.0014  -28.7315   0.0000   0.0889
 -20.500  -1.3244   0.02516   0.02168  -0.1752  0.4012  0.0014  -28.1314   0.0000   0.0873
 -20.000  -1.3113   0.02142   0.01789  -0.1777  0.4011  0.0014  -27.4743   0.0000   0.0854
 -19.500  -1.2967   0.01853   0.01493  -0.1786  0.3789  0.0014  -26.7730   0.0000   0.0844
 -19.000  -1.2553   0.01617   0.01251  -0.1829  0.3681  0.0014  -25.7311   0.0000   0.0774
 -18.500  -1.2010   0.01420   0.01048  -0.1887  0.3629  0.0014  -24.5400   0.0000   0.0667
 -18.000  -1.1504   0.01334   0.00950  -0.1900  0.2976  0.0014  -23.3754   0.0000   0.0593
 -17.500  -1.0967   0.01255   0.00869  -0.1913  0.2896  0.0015  -22.1933   0.0000   0.0506
 -17.000  -1.0418   0.01186   0.00797  -0.1925  0.2822  0.0016  -21.0210   0.0000   0.0408
 -16.500  -0.9859   0.01124   0.00732  -0.1936  0.2785  0.0016  -19.8643   0.0000   0.0297
 -16.000  -0.9293   0.01068   0.00673  -0.1946  0.2780  0.0017  -18.7269   0.0000   0.0169
 -15.500  -0.8720   0.01016   0.00619  -0.1957  0.2777  0.0018  -17.6116   0.0000   0.0023
 -15.000  -0.8154   0.00975   0.00570  -0.1964  0.2244  0.0019  -16.5333   0.0000  -0.0140
 -14.500  -0.7573   0.00932   0.00524  -0.1974  0.2213  0.0021  -15.4684   0.0000  -0.0338
 -13.500  -0.6406   0.00860   0.00442  -0.1991  0.1880  0.0023  -13.5097   0.0000  -0.0843
 -13.000  -0.5816   0.00827   0.00406  -0.2000  0.1763  0.0024  -12.6124   0.0000  -0.1179
 -12.500  -0.5226   0.00797   0.00373  -0.2008  0.1468  0.0026  -11.7423   0.0000  -0.1591
 -12.000  -0.4632   0.00769   0.00340  -0.2017  0.1404  0.0028  -10.8957   0.0000  -0.2114
 -11.500  -0.4033   0.00739   0.00309  -0.2027  0.1418  0.0031  -10.0730   0.0000  -0.2802
 -11.000  -0.3435   0.00715   0.00282  -0.2036  0.1381  0.0034  -9.2776   0.0000  -0.3727
 -10.500  -0.2836   0.00693   0.00258  -0.2045  0.1336  0.0037  -8.5080   0.0000  -0.5048
 -10.000  -0.2237   0.00674   0.00237  -0.2053  0.1288  0.0039  -7.7648   0.0000  -0.7078
  -9.500  -0.1638   0.00659   0.00220  -0.2061  0.1241  0.0040  -7.0523   0.0000  -1.0589
  -9.000  -0.1039   0.00646   0.00205  -0.2068  0.1236  0.0041  -6.3701   0.0000  -1.8143
  -8.500  -0.0441   0.00634   0.00192  -0.2076  0.1233  0.0041  -5.7159   0.0000  -4.6239
  -8.000   0.0158   0.00624   0.00180  -0.2083  0.1229  0.0042  -5.0915   0.0000  13.8709
  -7.500   0.0752   0.00618   0.00172  -0.2089  0.1063  0.0042  -4.4994   0.0000   3.1115
  -7.000   0.1348   0.00612   0.00162  -0.2096  0.1019  0.0043  -4.0406   0.0000   1.8469
  -6.500   0.1944   0.00607   0.00155  -0.2102  0.0992  0.0043  -3.6489   0.0000   1.3587
  -6.000   0.2539   0.00604   0.00149  -0.2108  0.0965  0.0043  -3.2724   0.0000   1.0996
  -5.500   0.3133   0.00601   0.00145  -0.2115  0.0940  0.0044  -2.9111   0.0000   0.9389
  -5.000   0.3727   0.00599   0.00142  -0.2121  0.0900  0.0044  -2.5653   0.0000   0.8296
  -4.500   0.4320   0.00598   0.00140  -0.2126  0.0843  0.0044  -2.2351   0.0000   0.7504
  -4.000   0.4912   0.00598   0.00139  -0.2132  0.0842  0.0045  -1.9203   0.0000   0.6903
  -3.500   0.5503   0.00599   0.00139  -0.2138  0.0841  0.0045  -1.6216   0.0000   0.6431
  -3.000   0.6093   0.00601   0.00140  -0.2143  0.0840  0.0046  -1.3388   0.0000   0.6051
  -2.500   0.6681   0.00604   0.00141  -0.2148  0.0837  0.0046  -1.0715   0.0000   0.5738
  -2.000   0.7250   0.00623   0.00151  -0.2149  0.0453  0.0046  -0.9637   0.0000   0.5478
  -1.500   0.7833   0.00629   0.00156  -0.2153  0.0425  0.0052  -1.0143   0.0000   0.5253
  -1.000   0.8414   0.00637   0.00162  -0.2157  0.0403  0.0061  -1.0668   0.0000   0.5060
  -0.500   0.8994   0.00645   0.00169  -0.2160  0.0383  0.0067  -1.1195   0.0000   0.4891
   0.000   0.9571   0.00654   0.00177  -0.2164  0.0381  0.0072  -1.1724   0.0000   0.4742
   0.500   1.0147   0.00664   0.00186  -0.2167  0.0380  0.0090  -1.2276   0.0000   0.4610
   1.000   1.0723   0.00673   0.00195  -0.2170  0.0382  0.0169  -1.2931   0.0000   0.4491
   1.500   1.1294   0.00685   0.00206  -0.2173  0.0382  0.0171  -1.3690   0.0000   0.4384
   2.000   1.1843   0.00715   0.00227  -0.2171  0.0173  0.0197  -1.4434   0.0000   0.4286
   2.500   1.2393   0.00743   0.00253  -0.2169  0.0013  0.0369  -1.5348   0.0000   0.4196
   3.000   1.2951   0.00762   0.00270  -0.2169  0.0013  0.0379  -1.6512   0.0000   0.4113
   3.500   1.3505   0.00783   0.00288  -0.2169  0.0013  0.0384  -1.7695   0.0000   0.4037
   4.000   1.4056   0.00804   0.00309  -0.2168  0.0013  0.0404  -1.9176   0.0000   0.3966
   4.500   1.4602   0.00828   0.00330  -0.2167  0.0013  0.0458  -2.0968   0.0000   0.3900
   5.500   1.5685   0.00878   0.00379  -0.2163  0.0013  0.0705  -2.4684   0.0000   0.3779
   6.000   1.6222   0.00905   0.00406  -0.2160  0.0012  0.1035  -2.6606   0.0000   0.3724
   6.500   1.6749   0.00934   0.00435  -0.2156  0.0012  0.1126  -2.8562   0.0000   0.3671
   7.000   1.7272   0.00966   0.00465  -0.2151  0.0012  0.1236  -3.0555   0.0000   0.3621
   7.500   1.7790   0.00998   0.00498  -0.2146  0.0012  0.1457  -3.2584   0.0000   0.3573
   8.000   1.8297   0.01034   0.00532  -0.2138  0.0012  0.1457  -3.4640   0.0000   0.3526
   8.500   1.8796   0.01072   0.00569  -0.2130  0.0012  0.1475  -3.6724   0.0000   0.3481
   9.000   1.9293   0.01110   0.00610  -0.2121  0.0012  0.2009  -3.9545   0.0000   0.3438
   9.500   1.9776   0.01152   0.00653  -0.2110  0.0012  0.2301  -4.3536   0.0000   0.3396
  10.000   2.0247   0.01197   0.00698  -0.2097  0.0012  0.2596  -4.9405   0.0000   0.3355
  10.500   2.0707   0.01245   0.00750  -0.2083  0.0011  0.3127  -5.5528   0.0000   0.3315
  11.000   2.1137   0.01298   0.00803  -0.2062  0.0011  0.3227  -6.1764   0.0000   0.3275
  11.500   2.1466   0.01357   0.00862  -0.2021  0.0011  0.3299  -6.7640   0.0000   0.3231
  12.000   2.1750   0.01425   0.00931  -0.1972  0.0010  0.3308  -7.3448   0.0000   0.3186
  12.500   2.2038   0.01506   0.01013  -0.1926  0.0010  0.3388  -7.9497   0.0000   0.3143
  13.000   2.2321   0.01600   0.01111  -0.1883  0.0009  0.3701  -8.5718   0.0000   0.3102
  14.000   2.2513   0.02026   0.01560  -0.1745  0.0021  0.4417  -9.5614   0.0000   0.3012
  14.500   2.2708   0.02202   0.01740  -0.1699  0.0022  0.4515  -10.1673   0.0000   0.2974
  15.000   2.2869   0.02427   0.01971  -0.1654  0.0027  0.4758  -10.7600   0.0000   0.2937
  15.500   2.3011   0.02691   0.02241  -0.1612  0.0031  0.5053  -11.3490   0.0000   0.2902
  16.000   2.3135   0.02991   0.02549  -0.1573  0.0036  0.5313  -11.9357   0.0000   0.2869
  16.500   2.3241   0.03326   0.02889  -0.1536  0.0039  0.5544  -12.5197   0.0000   0.2838
  17.000   2.3322   0.03705   0.03275  -0.1503  0.0042  0.5749  -13.0932   0.0000   0.2808
  17.500   2.3371   0.04118   0.03698  -0.1472  0.0046  0.6012  -13.6482   0.0000   0.2780
  18.000   2.3394   0.04607   0.04194  -0.1445  0.0046  0.6289  -14.1921   0.0000   0.2754
  18.500   2.3500   0.05019   0.04613  -0.1424  0.0046  0.6520  -14.8239   0.0000   0.2728
  19.000   2.3479   0.05610   0.05214  -0.1405  0.0047  0.6844  -15.3442   0.0000   0.2706
  19.500   2.3424   0.06258   0.05871  -0.1390  0.0047  0.7065  -15.8366   0.0000   0.2686
  20.000   2.3337   0.06978   0.06602  -0.1381  0.0047  0.7408  -16.3012   0.0000   0.2670
  20.500   2.3212   0.07763   0.07398  -0.1378  0.0047  0.7713  -16.7285   0.0000   0.2655
  21.000   2.3036   0.08592   0.08240  -0.1378  0.0047  0.7994  -17.1038   0.0000   0.2644
  22.000   2.2824   0.10156   0.09824  -0.1393  0.0047  0.8332  -17.9950   0.0000   0.2623
  22.500   2.2587   0.11153   0.10831  -0.1414  0.0047  0.8441  -18.2837   0.0000   0.2622


