XFLR5 v6.02 Beta

 Calculated polar for: WORTMANN FX 63-137

 1 1 Reynolds number fixed          Mach number fixed         

 xtrf =   1.000 (top)        1.000 (bottom)
 Mach =   0.000     Re =    73.000 e 6     Ncrit =   9.000

  alpha     CL        CD       CDp       CM    Top Xtr Bot Xtr   Cpmin    Chinge    XCp    
 ------- -------- --------- --------- -------- ------- ------- -------- --------- ---------
 -22.500  -0.5305   0.17468   0.17227  -0.0709  0.2828  0.0015  -11.4693   0.0000   0.0656
 -22.000  -0.5080   0.17106   0.16865  -0.0739  0.2787  0.0015  -10.9638   0.0000   0.0542
 -21.500  -0.4796   0.16901   0.16653  -0.0759  0.2290  0.0016  -10.2693   0.0000   0.0415
 -21.000  -0.4748   0.16119   0.15870  -0.0805  0.2232  0.0017  -10.3318   0.0000   0.0306
 -20.500  -0.4585   0.15612   0.15362  -0.0839  0.2219  0.0018  -10.0338   0.0000   0.0175
 -20.000  -0.4423   0.15107   0.14856  -0.0872  0.2215  0.0018  -9.7397   0.0000   0.0035
 -19.000  -1.2529   0.01675   0.01312  -0.1816  0.4010  0.0014  -25.6726   0.0000   0.0781
 -18.500  -1.2003   0.01455   0.01084  -0.1879  0.3721  0.0014  -24.5153   0.0000   0.0673
 -18.000  -1.1501   0.01360   0.00976  -0.1895  0.3054  0.0015  -23.3587   0.0000   0.0598
 -17.500  -1.0969   0.01279   0.00890  -0.1908  0.2967  0.0016  -22.1843   0.0000   0.0511
 -17.000  -1.0422   0.01207   0.00815  -0.1921  0.2894  0.0016  -21.0165   0.0000   0.0413
 -16.500  -0.9865   0.01143   0.00748  -0.1932  0.2823  0.0017  -19.8627   0.0000   0.0302
 -16.000  -0.9300   0.01084   0.00686  -0.1943  0.2785  0.0018  -18.7274   0.0000   0.0175
 -15.500  -0.8728   0.01031   0.00631  -0.1953  0.2782  0.0019  -17.6135   0.0000   0.0029
 -15.000  -0.8162   0.00989   0.00580  -0.1961  0.2364  0.0020  -16.5358   0.0000  -0.0134
 -14.500  -0.7582   0.00944   0.00532  -0.1970  0.2217  0.0022  -15.4726   0.0000  -0.0330
 -13.500  -0.6414   0.00870   0.00449  -0.1988  0.1919  0.0024  -13.5145   0.0000  -0.0834
 -13.000  -0.5825   0.00836   0.00411  -0.1997  0.1839  0.0025  -12.6179   0.0000  -0.1169
 -12.000  -0.4641   0.00776   0.00344  -0.2015  0.1435  0.0029  -10.9008   0.0000  -0.2101
 -11.500  -0.4042   0.00746   0.00312  -0.2025  0.1447  0.0033  -10.0771   0.0000  -0.2785
 -11.000  -0.3444   0.00721   0.00284  -0.2034  0.1409  0.0036  -9.2809   0.0000  -0.3705
 -10.500  -0.2846   0.00700   0.00260  -0.2042  0.1362  0.0039  -8.5099   0.0000  -0.5015
 -10.000  -0.2247   0.00682   0.00241  -0.2050  0.1313  0.0040  -7.7675   0.0000  -0.7022
  -9.500  -0.1649   0.00667   0.00224  -0.2058  0.1262  0.0040  -7.0556   0.0000  -1.0488
  -9.000  -0.1050   0.00654   0.00208  -0.2066  0.1237  0.0041  -6.3736   0.0000  -1.7906
  -8.500  -0.0451   0.00642   0.00195  -0.2073  0.1234  0.0041  -5.7195   0.0000  -4.5014
  -8.000   0.0147   0.00631   0.00183  -0.2080  0.1231  0.0042  -5.0951   0.0000  14.8500
  -7.500   0.0745   0.00623   0.00173  -0.2087  0.1228  0.0042  -4.5005   0.0000   3.1341
  -7.000   0.1338   0.00619   0.00166  -0.2093  0.1037  0.0043  -4.0422   0.0000   1.8571
  -6.500   0.1934   0.00614   0.00157  -0.2100  0.1007  0.0043  -3.6505   0.0000   1.3632
  -6.000   0.2528   0.00610   0.00152  -0.2106  0.0979  0.0043  -3.2742   0.0000   1.1021
  -5.500   0.3123   0.00608   0.00147  -0.2112  0.0953  0.0044  -2.9131   0.0000   0.9405
  -5.000   0.3717   0.00606   0.00144  -0.2118  0.0922  0.0044  -2.5673   0.0000   0.8306
  -4.500   0.4309   0.00605   0.00142  -0.2124  0.0855  0.0044  -2.2371   0.0000   0.7511
  -4.000   0.4901   0.00605   0.00140  -0.2130  0.0842  0.0045  -1.9224   0.0000   0.6908
  -3.500   0.5492   0.00606   0.00140  -0.2135  0.0841  0.0045  -1.6237   0.0000   0.6435
  -3.000   0.6082   0.00608   0.00141  -0.2140  0.0840  0.0046  -1.3409   0.0000   0.6054
  -2.500   0.6670   0.00611   0.00143  -0.2145  0.0838  0.0046  -1.0735   0.0000   0.5740
  -2.000   0.7239   0.00629   0.00152  -0.2146  0.0469  0.0047  -0.9630   0.0000   0.5479
  -1.500   0.7821   0.00636   0.00158  -0.2150  0.0440  0.0054  -1.0136   0.0000   0.5254
  -1.000   0.8402   0.00644   0.00164  -0.2154  0.0416  0.0063  -1.0660   0.0000   0.5060
  -0.500   0.8982   0.00652   0.00171  -0.2158  0.0394  0.0070  -1.1186   0.0000   0.4891
   0.000   0.9559   0.00662   0.00179  -0.2161  0.0382  0.0075  -1.1716   0.0000   0.4742
   0.500   1.0134   0.00672   0.00188  -0.2164  0.0381  0.0093  -1.2267   0.0000   0.4610
   1.000   1.0710   0.00681   0.00198  -0.2168  0.0388  0.0169  -1.2920   0.0000   0.4491
   1.500   1.1281   0.00693   0.00208  -0.2170  0.0382  0.0171  -1.3678   0.0000   0.4384
   2.000   1.1831   0.00721   0.00229  -0.2168  0.0227  0.0201  -1.4424   0.0000   0.4285
   2.500   1.2379   0.00752   0.00256  -0.2166  0.0014  0.0370  -1.5332   0.0000   0.4195
   3.000   1.2936   0.00771   0.00273  -0.2166  0.0013  0.0379  -1.6494   0.0000   0.4113
   3.500   1.3490   0.00792   0.00292  -0.2166  0.0013  0.0386  -1.7676   0.0000   0.4037
   4.000   1.4041   0.00814   0.00313  -0.2165  0.0013  0.0410  -1.9150   0.0000   0.3966
   4.500   1.4587   0.00837   0.00335  -0.2164  0.0013  0.0466  -2.0941   0.0000   0.3899
   6.000   1.6204   0.00915   0.00412  -0.2157  0.0012  0.1037  -2.6572   0.0000   0.3723
   6.500   1.6730   0.00946   0.00441  -0.2152  0.0012  0.1152  -2.8524   0.0000   0.3670
   8.000   1.8275   0.01047   0.00540  -0.2134  0.0012  0.1458  -3.4592   0.0000   0.3525
   8.500   1.8772   0.01085   0.00577  -0.2125  0.0012  0.1528  -3.6671   0.0000   0.3480
   9.000   1.9268   0.01124   0.00618  -0.2116  0.0012  0.2077  -3.9472   0.0000   0.3437
  10.000   2.0220   0.01212   0.00710  -0.2092  0.0012  0.2771  -4.9243   0.0000   0.3354
  10.500   2.0675   0.01261   0.00761  -0.2076  0.0011  0.3248  -5.5321   0.0000   0.3314
  11.000   2.1102   0.01315   0.00816  -0.2056  0.0011  0.3346  -6.1532   0.0000   0.3274
  11.500   2.1403   0.01375   0.00878  -0.2009  0.0011  0.3451  -6.7214   0.0000   0.3228
  13.000   2.2258   0.01627   0.01135  -0.1872  0.0009  0.3887  -8.5250   0.0000   0.3099
  14.000   2.2451   0.02065   0.01598  -0.1736  0.0017  0.4580  -9.4848   0.0000   0.3010
  15.000   2.2798   0.02479   0.02022  -0.1646  0.0023  0.4986  -10.7024   0.0000   0.2936
  15.500   2.2952   0.02740   0.02290  -0.1606  0.0028  0.5304  -11.3009   0.0000   0.2902
  16.000   2.3077   0.03042   0.02597  -0.1568  0.0032  0.5511  -11.8872   0.0000   0.2869
  16.500   2.3181   0.03383   0.02945  -0.1532  0.0036  0.5700  -12.4678   0.0000   0.2838
  17.000   2.3259   0.03769   0.03340  -0.1499  0.0039  0.6034  -13.0382   0.0000   0.2808
  17.500   2.3298   0.04199   0.03778  -0.1468  0.0044  0.6288  -13.5817   0.0000   0.2780
  18.000   2.3319   0.04691   0.04277  -0.1441  0.0046  0.6505  -14.1202   0.0000   0.2754
  18.500   2.3326   0.05236   0.04832  -0.1420  0.0046  0.6800  -14.6548   0.0000   0.2731
  19.000   2.3290   0.05851   0.05457  -0.1402  0.0046  0.7034  -15.1571   0.0000   0.2710
  20.000   2.3269   0.07085   0.06710  -0.1383  0.0047  0.7759  -16.2297   0.0000   0.2672
  20.500   2.3141   0.07869   0.07507  -0.1380  0.0047  0.8062  -16.6521   0.0000   0.2658
  21.000   2.2962   0.08719   0.08369  -0.1382  0.0047  0.8303  -17.0214   0.0000   0.2647
  21.500   2.2767   0.09652   0.09313  -0.1393  0.0047  0.8522  -17.3671   0.0000   0.2641


