XFLR5 v6.02 Beta

 Calculated polar for: WORTMANN FX 63-137

 1 1 Reynolds number fixed          Mach number fixed         

 xtrf =   1.000 (top)        1.000 (bottom)
 Mach =   0.000     Re =     7.000 e 6     Ncrit =   9.000

  alpha     CL        CD       CDp       CM    Top Xtr Bot Xtr   Cpmin    Chinge    XCp    
 ------- -------- --------- --------- -------- ------- ------- -------- --------- ---------
 -16.500  -0.8498   0.03420   0.03128  -0.1600  0.7914  0.0039  -16.9055   0.0000   0.0346
 -16.000  -0.8490   0.02793   0.02483  -0.1659  0.7722  0.0039  -16.6281   0.0000   0.0291
 -15.500  -0.8418   0.02343   0.02014  -0.1690  0.7404  0.0040  -16.2133   0.0000   0.0252
 -15.000  -0.8096   0.01979   0.01633  -0.1748  0.7190  0.0040  -15.5235   0.0000   0.0109
 -14.500  -0.7597   0.01698   0.01332  -0.1819  0.6863  0.0041  -14.6523   0.0000  -0.0123
 -14.000  -0.7065   0.01537   0.01156  -0.1854  0.6727  0.0041  -13.7293   0.0000  -0.0353
 -13.000  -0.6005   0.01338   0.00916  -0.1887  0.5924  0.0042  -11.9324   0.0000  -0.0873
 -12.500  -0.5466   0.01272   0.00828  -0.1897  0.5436  0.0043  -11.0572   0.0000  -0.1206
 -12.000  -0.4889   0.01202   0.00751  -0.1911  0.5298  0.0044  -10.1714   0.0000  -0.1653
  -4.500   0.3928   0.00846   0.00236  -0.2038  0.1807  0.0052  -1.9514   0.0000   0.7776
  -4.000   0.4534   0.00834   0.00214  -0.2047  0.1709  0.0048  -1.7352   0.0000   0.7081
  -3.500   0.5139   0.00823   0.00196  -0.2055  0.1693  0.0083  -1.6599   0.0000   0.6548
  -3.000   0.5740   0.00815   0.00193  -0.2063  0.1677  0.0145  -1.3942   0.0000   0.6131
  -2.500   0.6303   0.00838   0.00202  -0.2064  0.1351  0.0151  -1.1277   0.0000   0.5799
  -2.000   0.6884   0.00845   0.00206  -0.2068  0.1238  0.0151  -0.9409   0.0000   0.5519
  -1.500   0.7465   0.00851   0.00210  -0.2073  0.1229  0.0157  -0.9895   0.0000   0.5281
  -1.000   0.8044   0.00859   0.00217  -0.2076  0.1215  0.0160  -1.0414   0.0000   0.5078
  -0.500   0.8601   0.00885   0.00233  -0.2076  0.0994  0.0163  -1.0920   0.0000   0.4903
   0.000   0.9169   0.00900   0.00244  -0.2078  0.0950  0.0165  -1.1439   0.0000   0.4748
   1.000   1.0304   0.00928   0.00270  -0.2082  0.0857  0.0173  -1.2577   0.0000   0.4488
   1.500   1.0866   0.00944   0.00285  -0.2083  0.0842  0.0234  -1.3301   0.0000   0.4377
   2.000   1.1429   0.00958   0.00304  -0.2084  0.0838  0.0365  -1.4054   0.0000   0.4277
   2.500   1.1945   0.01010   0.00343  -0.2077  0.0507  0.0422  -1.4878   0.0000   0.4185
   3.000   1.2485   0.01042   0.00373  -0.2074  0.0427  0.0666  -1.5893   0.0000   0.4100
   3.500   1.3025   0.01069   0.00399  -0.2072  0.0381  0.0765  -1.7054   0.0000   0.4022
   4.000   1.3567   0.01093   0.00426  -0.2070  0.0378  0.1007  -1.8330   0.0000   0.3950
   4.500   1.4097   0.01123   0.00457  -0.2066  0.0363  0.1169  -2.0080   0.0000   0.3882
   5.000   1.4588   0.01184   0.00512  -0.2055  0.0171  0.1633  -2.1685   0.0000   0.3818
   5.500   1.5081   0.01245   0.00579  -0.2046  0.0041  0.2498  -2.3541   0.0000   0.3758
   6.500   1.6125   0.01319   0.00682  -0.2040  0.0017  0.4582  -2.7293   0.0000   0.3650
   7.000   1.6607   0.01367   0.00735  -0.2028  0.0014  0.4981  -2.9170   0.0000   0.3598
   7.500   1.7068   0.01422   0.00793  -0.2013  0.0013  0.5272  -3.1052   0.0000   0.3547
   8.000   1.7500   0.01483   0.00855  -0.1992  0.0013  0.5324  -3.2918   0.0000   0.3497
   8.500   1.7849   0.01548   0.00924  -0.1954  0.0013  0.5512  -3.4658   0.0000   0.3445
   9.000   1.8187   0.01623   0.01002  -0.1916  0.0012  0.5707  -3.6405   0.0000   0.3395
   9.500   1.8528   0.01707   0.01096  -0.1881  0.0012  0.6266  -3.8773   0.0000   0.3348
  10.000   1.8849   0.01807   0.01202  -0.1844  0.0012  0.6599  -4.1147   0.0000   0.3301
  10.500   1.9141   0.01924   0.01327  -0.1804  0.0012  0.6913  -4.5664   0.0000   0.3256
  11.000   1.9421   0.02060   0.01470  -0.1765  0.0011  0.7181  -5.0362   0.0000   0.3212
  11.500   1.9683   0.02220   0.01640  -0.1727  0.0011  0.7585  -5.5045   0.0000   0.3170
  12.000   1.9906   0.02418   0.01854  -0.1688  0.0011  0.8149  -5.9333   0.0000   0.3130
  14.000   2.0695   0.03425   0.02903  -0.1554  0.0009  1.0000  -8.0839   0.0000   0.2989
  14.500   2.0824   0.03776   0.03261  -0.1524  0.0009  1.0000  -8.5867   0.0000   0.2958
  15.000   2.0922   0.04165   0.03659  -0.1495  0.0009  1.0000  -9.0793   0.0000   0.2928
  15.500   2.0992   0.04609   0.04110  -0.1468  0.0009  1.0000  -9.5618   0.0000   0.2900
  16.000   2.1071   0.05069   0.04580  -0.1446  0.0009  1.0000  -10.0531   0.0000   0.2874
  16.500   2.1129   0.05574   0.05094  -0.1427  0.0008  1.0000  -10.5472   0.0000   0.2851
  17.000   2.1139   0.06160   0.05690  -0.1412  0.0008  1.0000  -11.0102   0.0000   0.2830
  17.500   2.1121   0.06799   0.06340  -0.1401  0.0008  1.0000  -11.4547   0.0000   0.2811
  18.000   2.1072   0.07492   0.07044  -0.1394  0.0008  1.0000  -11.8768   0.0000   0.2795
  18.500   2.1046   0.08136   0.07700  -0.1389  0.0008  1.0000  -12.3261   0.0000   0.2779
  19.000   2.0971   0.08868   0.08443  -0.1389  0.0007  1.0000  -12.7323   0.0000   0.2767
  19.500   2.0864   0.09681   0.09269  -0.1396  0.0007  1.0000  -13.1164   0.0000   0.2759
  20.000   2.0724   0.10559   0.10160  -0.1410  0.0007  1.0000  -13.4548   0.0000   0.2755


