XFLR5 v6.02 Beta

 Calculated polar for: WORTMANN FX 63-137

 1 1 Reynolds number fixed          Mach number fixed         

 xtrf =   1.000 (top)        1.000 (bottom)
 Mach =   0.000     Re =    10.000 e 6     Ncrit =   9.000

  alpha     CL        CD       CDp       CM    Top Xtr Bot Xtr   Cpmin    Chinge    XCp    
 ------- -------- --------- --------- -------- ------- ------- -------- --------- ---------
 -18.500  -0.7646   0.07452   0.07199  -0.1287  0.7437  0.0036  -16.4079   0.0000   0.0466
 -18.000  -0.9552   0.03964   0.03667  -0.1565  0.7659  0.0035  -19.6593   0.0000   0.0569
 -17.500  -0.9636   0.03228   0.02911  -0.1632  0.7414  0.0036  -19.5108   0.0000   0.0530
 -17.000  -0.9558   0.02725   0.02394  -0.1676  0.7250  0.0036  -19.0762   0.0000   0.0485
 -16.500  -0.9422   0.02311   0.01971  -0.1708  0.7187  0.0037  -18.5404   0.0000   0.0439
 -16.000  -0.9158   0.01991   0.01634  -0.1745  0.6883  0.0037  -17.8427   0.0000   0.0356
 -15.500  -0.8698   0.01723   0.01350  -0.1805  0.6585  0.0038  -16.9391   0.0000   0.0192
 -15.000  -0.8166   0.01549   0.01159  -0.1851  0.6240  0.0038  -15.9525   0.0000   0.0004
 -14.500  -0.7637   0.01438   0.01037  -0.1871  0.6063  0.0039  -14.9684   0.0000  -0.0178
 -14.000  -0.7084   0.01339   0.00930  -0.1890  0.5961  0.0039  -13.9855   0.0000  -0.0396
 -13.500  -0.6594   0.01291   0.00843  -0.1892  0.4798  0.0040  -13.0918   0.0000  -0.0597
 -13.000  -0.6022   0.01217   0.00761  -0.1907  0.4644  0.0040  -12.1446   0.0000  -0.0897
 -12.500  -0.5461   0.01160   0.00689  -0.1918  0.4268  0.0041  -11.2356   0.0000  -0.1248
 -12.000  -0.4882   0.01103   0.00623  -0.1930  0.4062  0.0042  -10.3425   0.0000  -0.1698
 -11.500  -0.4290   0.01047   0.00563  -0.1943  0.4008  0.0043  -9.4619   0.0000  -0.2288
  -3.500   0.5196   0.00791   0.00189  -0.2068  0.1381  0.0061  -1.6662   0.0000   0.6530
  -3.000   0.5788   0.00790   0.00188  -0.2075  0.1281  0.0133  -1.3971   0.0000   0.6121
  -2.500   0.6373   0.00794   0.00191  -0.2080  0.1229  0.0146  -1.1254   0.0000   0.5787
  -2.000   0.6947   0.00807   0.00198  -0.2082  0.1094  0.0146  -0.9449   0.0000   0.5511
  -1.500   0.7522   0.00819   0.00205  -0.2085  0.1001  0.0153  -0.9934   0.0000   0.5277
  -1.000   0.8096   0.00831   0.00212  -0.2088  0.0944  0.0157  -1.0450   0.0000   0.5076
  -0.500   0.8672   0.00841   0.00221  -0.2091  0.0896  0.0160  -1.0970   0.0000   0.4901
   0.000   0.9245   0.00853   0.00231  -0.2094  0.0844  0.0162  -1.1493   0.0000   0.4747
   1.000   1.0385   0.00877   0.00254  -0.2099  0.0840  0.0173  -1.2643   0.0000   0.4488
   1.500   1.0951   0.00891   0.00268  -0.2100  0.0836  0.0205  -1.3381   0.0000   0.4378
   2.000   1.1515   0.00905   0.00285  -0.2102  0.0829  0.0352  -1.4136   0.0000   0.4278
   2.500   1.2024   0.00965   0.00328  -0.2093  0.0417  0.0388  -1.4965   0.0000   0.4187
   3.000   1.2573   0.00988   0.00351  -0.2092  0.0377  0.0517  -1.6025   0.0000   0.4103
   3.500   1.3119   0.01011   0.00374  -0.2091  0.0366  0.0669  -1.7191   0.0000   0.4025
   4.000   1.3639   0.01053   0.00410  -0.2084  0.0249  0.0729  -1.8471   0.0000   0.3952
   4.500   1.4164   0.01090   0.00445  -0.2079  0.0168  0.1012  -2.0101   0.0000   0.3885
   5.000   1.4655   0.01150   0.00501  -0.2067  0.0038  0.1175  -2.1907   0.0000   0.3820
   5.500   1.5175   0.01186   0.00542  -0.2062  0.0029  0.1672  -2.3723   0.0000   0.3760
   6.000   1.5722   0.01212   0.00588  -0.2065  0.0016  0.3224  -2.5619   0.0000   0.3706
   6.500   1.6231   0.01252   0.00634  -0.2058  0.0013  0.3728  -2.7508   0.0000   0.3653
   7.000   1.6726   0.01296   0.00683  -0.2049  0.0013  0.4213  -2.9418   0.0000   0.3602
   7.500   1.7218   0.01341   0.00738  -0.2041  0.0013  0.4956  -3.1365   0.0000   0.3553
   8.000   1.7667   0.01398   0.00793  -0.2022  0.0013  0.4927  -3.3273   0.0000   0.3504
   8.500   1.8100   0.01457   0.00854  -0.2002  0.0012  0.5135  -3.5189   0.0000   0.3456
   9.000   1.8440   0.01522   0.00922  -0.1962  0.0012  0.5283  -3.7102   0.0000   0.3405
   9.500   1.8776   0.01596   0.01001  -0.1924  0.0012  0.5587  -3.9490   0.0000   0.3357
  10.000   1.9100   0.01682   0.01093  -0.1886  0.0012  0.5898  -4.2606   0.0000   0.3310
  10.500   1.9417   0.01781   0.01199  -0.1848  0.0011  0.6323  -4.7496   0.0000   0.3265
  11.000   1.9709   0.01897   0.01323  -0.1809  0.0011  0.6726  -5.2455   0.0000   0.3221
  11.500   1.9987   0.02032   0.01464  -0.1770  0.0011  0.7000  -5.7513   0.0000   0.3178
  12.000   2.0246   0.02188   0.01628  -0.1731  0.0011  0.7287  -6.2625   0.0000   0.3137
  12.500   2.0473   0.02375   0.01826  -0.1692  0.0011  0.7736  -6.7684   0.0000   0.3098
  13.000   2.0719   0.02577   0.02041  -0.1660  0.0010  0.8501  -7.3617   0.0000   0.3062
  13.500   2.0938   0.02807   0.02293  -0.1629  0.0009  1.0000  -7.9123   0.0000   0.3027
  14.000   2.1108   0.03084   0.02576  -0.1593  0.0009  1.0000  -8.4445   0.0000   0.2992
  14.500   2.1260   0.03394   0.02891  -0.1561  0.0009  1.0000  -8.9785   0.0000   0.2960
  15.000   2.1386   0.03744   0.03248  -0.1530  0.0009  1.0000  -9.5063   0.0000   0.2929
  15.500   2.1480   0.04133   0.03644  -0.1500  0.0009  1.0000  -10.0194   0.0000   0.2900
  16.000   2.1549   0.04574   0.04093  -0.1474  0.0008  1.0000  -10.5258   0.0000   0.2872
  16.500   2.1659   0.04993   0.04519  -0.1452  0.0008  1.0000  -11.0787   0.0000   0.2846
  17.000   2.1689   0.05528   0.05062  -0.1432  0.0008  1.0000  -11.5742   0.0000   0.2822
  17.500   2.1694   0.06116   0.05660  -0.1417  0.0008  1.0000  -12.0546   0.0000   0.2801
  18.000   2.1671   0.06753   0.06307  -0.1405  0.0008  1.0000  -12.5176   0.0000   0.2782
  18.500   2.1617   0.07444   0.07009  -0.1398  0.0007  1.0000  -12.9567   0.0000   0.2766
  19.000   2.1637   0.08017   0.07591  -0.1391  0.0007  1.0000  -13.4760   0.0000   0.2748
  19.500   2.1515   0.08805   0.08390  -0.1392  0.0007  1.0000  -13.8583   0.0000   0.2737
  20.000   2.1387   0.09639   0.09237  -0.1399  0.0007  1.0000  -14.2301   0.0000   0.2729


