XFLR5 v6.02 Beta

 Calculated polar for: WORTMANN FX 63-137

 1 1 Reynolds number fixed          Mach number fixed         

 xtrf =   1.000 (top)        1.000 (bottom)
 Mach =   0.000     Re =    41.750 e 6     Ncrit =   9.000

  alpha     CL        CD       CDp       CM    Top Xtr Bot Xtr   Cpmin    Chinge    XCp    
 ------- -------- --------- --------- -------- ------- ------- -------- --------- ---------
 -22.000  -1.1157   0.06814   0.06508  -0.1398  0.4829  0.0018  -25.3085   0.0000   0.0864
 -21.500  -1.1971   0.05105   0.04784  -0.1533  0.4996  0.0018  -26.5743   0.0000   0.0865
 -20.500  -1.2362   0.03483   0.03139  -0.1660  0.4745  0.0018  -26.5593   0.0000   0.0839
 -20.000  -1.2407   0.02902   0.02550  -0.1705  0.4689  0.0018  -26.2411   0.0000   0.0824
 -19.500  -1.2310   0.02484   0.02125  -0.1734  0.4668  0.0019  -25.6744   0.0000   0.0803
 -19.000  -1.2170   0.02122   0.01757  -0.1756  0.4659  0.0019  -25.0301   0.0000   0.0782
 -18.000  -1.1484   0.01587   0.01208  -0.1835  0.4349  0.0021  -23.2231   0.0000   0.0647
 -17.500  -1.0965   0.01437   0.01038  -0.1875  0.3599  0.0022  -22.1033   0.0000   0.0541
 -17.000  -1.0436   0.01339   0.00936  -0.1892  0.3487  0.0023  -20.9675   0.0000   0.0444
 -16.500  -0.9890   0.01255   0.00848  -0.1906  0.3395  0.0024  -19.8352   0.0000   0.0334
 -16.000  -0.9333   0.01181   0.00770  -0.1920  0.3383  0.0025  -18.7152   0.0000   0.0208
 -15.500  -0.8766   0.01113   0.00699  -0.1932  0.3377  0.0027  -17.6125   0.0000   0.0063
 -15.000  -0.8192   0.01053   0.00636  -0.1944  0.3375  0.0029  -16.5297   0.0000  -0.0104
 -14.500  -0.7630   0.01008   0.00579  -0.1952  0.2776  0.0030  -15.4886   0.0000  -0.0288
 -14.000  -0.7054   0.00965   0.00528  -0.1961  0.2468  0.0032  -14.4625   0.0000  -0.0511
 -13.500  -0.6471   0.00926   0.00484  -0.1971  0.2289  0.0033  -13.5378   0.0000  -0.0778
 -13.000  -0.5880   0.00886   0.00441  -0.1981  0.2220  0.0035  -12.6352   0.0000  -0.1106
 -12.000  -0.4703   0.00829   0.00371  -0.1998  0.1703  0.0038  -10.9120   0.0000  -0.2003
 -11.500  -0.4107   0.00802   0.00342  -0.2007  0.1703  0.0039  -10.0836   0.0000  -0.2657
 -11.000  -0.3510   0.00778   0.00315  -0.2015  0.1699  0.0039  -9.2864   0.0000  -0.3535
 -10.500  -0.2913   0.00756   0.00292  -0.2024  0.1694  0.0040  -8.5176   0.0000  -0.4777
 -10.000  -0.2315   0.00737   0.00270  -0.2032  0.1688  0.0040  -7.7774   0.0000  -0.6665
  -9.500  -0.1722   0.00724   0.00251  -0.2039  0.1448  0.0041  -7.0710   0.0000  -0.9826
  -9.000  -0.1126   0.00711   0.00233  -0.2046  0.1345  0.0041  -6.3929   0.0000  -1.6364
  -8.500  -0.0527   0.00697   0.00218  -0.2054  0.1293  0.0041  -5.7398   0.0000  -3.7817
  -8.000   0.0071   0.00685   0.00204  -0.2062  0.1245  0.0042  -5.1160   0.0000  30.1148
  -7.500   0.0670   0.00675   0.00192  -0.2069  0.1238  0.0042  -4.5217   0.0000   3.4321
  -7.000   0.1268   0.00666   0.00182  -0.2076  0.1236  0.0043  -4.0498   0.0000   1.9331
  -6.500   0.1865   0.00659   0.00173  -0.2083  0.1234  0.0043  -3.6585   0.0000   1.3953
  -6.000   0.2461   0.00653   0.00166  -0.2090  0.1230  0.0043  -3.2825   0.0000   1.1187
  -5.500   0.3057   0.00649   0.00160  -0.2097  0.1224  0.0044  -2.9218   0.0000   0.9502
  -5.000   0.3644   0.00652   0.00158  -0.2101  0.1020  0.0044  -2.5782   0.0000   0.8375
  -4.500   0.4236   0.00652   0.00155  -0.2107  0.0990  0.0045  -2.2493   0.0000   0.7558
  -4.000   0.4825   0.00654   0.00154  -0.2112  0.0915  0.0045  -1.9361   0.0000   0.6941
  -3.500   0.5415   0.00655   0.00154  -0.2118  0.0862  0.0046  -1.6378   0.0000   0.6459
  -3.000   0.6004   0.00657   0.00155  -0.2123  0.0844  0.0051  -1.3551   0.0000   0.6071
  -2.500   0.6591   0.00660   0.00157  -0.2128  0.0841  0.0048  -1.0872   0.0000   0.5752
  -2.000   0.7177   0.00664   0.00160  -0.2133  0.0838  0.0057  -0.9594   0.0000   0.5485
  -1.500   0.7747   0.00682   0.00170  -0.2134  0.0612  0.0070  -1.0086   0.0000   0.5260
  -1.000   0.8326   0.00691   0.00176  -0.2138  0.0514  0.0081  -1.0608   0.0000   0.5064
  -0.500   0.8902   0.00701   0.00185  -0.2141  0.0489  0.0090  -1.1131   0.0000   0.4894
   0.000   0.9477   0.00713   0.00195  -0.2144  0.0461  0.0097  -1.1658   0.0000   0.4743
   0.500   1.0052   0.00724   0.00205  -0.2147  0.0435  0.0157  -1.2202   0.0000   0.4610
   1.000   1.0625   0.00734   0.00214  -0.2150  0.0461  0.0170  -1.2847   0.0000   0.4490
   1.500   1.1193   0.00748   0.00227  -0.2151  0.0448  0.0172  -1.3600   0.0000   0.4382
   2.000   1.1759   0.00763   0.00241  -0.2153  0.0429  0.0196  -1.4361   0.0000   0.4284
   2.500   1.2283   0.00812   0.00279  -0.2146  0.0024  0.0373  -1.5232   0.0000   0.4193
   3.500   1.3388   0.00856   0.00319  -0.2145  0.0014  0.0423  -1.7545   0.0000   0.4033
   4.000   1.3935   0.00880   0.00342  -0.2143  0.0016  0.0456  -1.8968   0.0000   0.3962
   4.500   1.4479   0.00904   0.00367  -0.2142  0.0014  0.0656  -2.0748   0.0000   0.3896
   5.000   1.5016   0.00932   0.00392  -0.2139  0.0013  0.0671  -2.2567   0.0000   0.3833
   5.500   1.5549   0.00961   0.00421  -0.2135  0.0013  0.0811  -2.4427   0.0000   0.3774
   6.000   1.6080   0.00990   0.00452  -0.2132  0.0012  0.1229  -2.6331   0.0000   0.3718
   6.500   1.6604   0.01022   0.00485  -0.2127  0.0012  0.1463  -2.8269   0.0000   0.3665
   7.000   1.7117   0.01058   0.00519  -0.2121  0.0012  0.1606  -3.0236   0.0000   0.3615
   8.000   1.8119   0.01135   0.00595  -0.2103  0.0012  0.1727  -3.4258   0.0000   0.3519
   8.500   1.8618   0.01174   0.00639  -0.2096  0.0012  0.2488  -3.6330   0.0000   0.3475
   9.000   1.9095   0.01219   0.00685  -0.2083  0.0012  0.2731  -3.8973   0.0000   0.3431
   9.500   1.9562   0.01266   0.00735  -0.2070  0.0012  0.3075  -4.2312   0.0000   0.3388
  10.500   2.0453   0.01371   0.00851  -0.2036  0.0011  0.4324  -5.3907   0.0000   0.3306
  11.000   2.0725   0.01436   0.00917  -0.1983  0.0011  0.4339  -5.9104   0.0000   0.3257
  11.500   2.1020   0.01513   0.00995  -0.1937  0.0011  0.4390  -6.4662   0.0000   0.3212
  12.000   2.1319   0.01601   0.01085  -0.1895  0.0010  0.4428  -7.0455   0.0000   0.3169
  12.500   2.1610   0.01701   0.01190  -0.1854  0.0010  0.4898  -7.6407   0.0000   0.3128
  13.000   2.1885   0.01818   0.01312  -0.1812  0.0010  0.5171  -8.2453   0.0000   0.3087
  13.500   2.2135   0.01957   0.01454  -0.1770  0.0009  0.5305  -8.8519   0.0000   0.3048
  14.000   2.2366   0.02119   0.01622  -0.1729  0.0009  0.5640  -9.4638   0.0000   0.3010
  14.500   2.2577   0.02305   0.01817  -0.1688  0.0009  0.6234  -10.0772   0.0000   0.2973
  15.000   2.2768   0.02522   0.02039  -0.1649  0.0008  0.6444  -10.6929   0.0000   0.2938
  15.500   2.2951   0.02772   0.02295  -0.1613  0.0008  0.6849  -11.3185   0.0000   0.2904
  16.500   2.2693   0.03866   0.03422  -0.1501  0.0014  0.7229  -11.9984   0.0000   0.2838
  17.000   2.2741   0.04314   0.03883  -0.1472  0.0017  0.7687  -12.5363   0.0000   0.2810
  18.000   2.2897   0.05372   0.04978  -0.1448  0.0026  1.0000  -13.7330   0.0000   0.2767
  18.500   2.2853   0.06009   0.05623  -0.1430  0.0029  1.0000  -14.2092   0.0000   0.2746
  19.000   2.2896   0.06538   0.06158  -0.1416  0.0032  1.0000  -14.7749   0.0000   0.2724
  19.500   2.2797   0.07274   0.06903  -0.1407  0.0035  1.0000  -15.2073   0.0000   0.2708


