XFLR5 v6.02 Beta

 Calculated polar for: WORTMANN FX 63-137

 1 1 Reynolds number fixed          Mach number fixed         

 xtrf =   1.000 (top)        1.000 (bottom)
 Mach =   0.000     Re =    52.250 e 6     Ncrit =   9.000

  alpha     CL        CD       CDp       CM    Top Xtr Bot Xtr   Cpmin    Chinge    XCp    
 ------- -------- --------- --------- -------- ------- ------- -------- --------- ---------
 -22.000  -1.2059   0.05594   0.05279  -0.1501  0.4660  0.0015  -27.0991   0.0000   0.0887
 -21.500  -1.2465   0.04484   0.04157  -0.1589  0.4659  0.0015  -27.5173   0.0000   0.0879
 -21.000  -1.2672   0.03655   0.03318  -0.1655  0.4657  0.0015  -27.5194   0.0000   0.0866
 -20.500  -1.2705   0.03100   0.02752  -0.1696  0.4362  0.0016  -27.1747   0.0000   0.0852
 -20.000  -1.2676   0.02614   0.02258  -0.1732  0.4319  0.0016  -26.7128   0.0000   0.0836
 -19.500  -1.2531   0.02257   0.01894  -0.1754  0.4272  0.0016  -26.0515   0.0000   0.0815
 -19.000  -1.2401   0.01944   0.01576  -0.1766  0.4225  0.0017  -25.3958   0.0000   0.0805
 -18.500  -1.2009   0.01680   0.01306  -0.1812  0.4161  0.0018  -24.4160   0.0000   0.0729
 -18.000  -1.1478   0.01470   0.01086  -0.1873  0.3716  0.0018  -23.2762   0.0000   0.0613
 -17.500  -1.0964   0.01370   0.00977  -0.1890  0.3383  0.0019  -22.1340   0.0000   0.0528
 -16.500  -0.9874   0.01209   0.00809  -0.1918  0.3376  0.0021  -19.8390   0.0000   0.0319
 -16.000  -0.9323   0.01147   0.00739  -0.1928  0.3055  0.0022  -18.7237   0.0000   0.0197
 -15.500  -0.8756   0.01086   0.00674  -0.1939  0.3009  0.0024  -17.6188   0.0000   0.0053
 -15.000  -0.8184   0.01032   0.00616  -0.1950  0.2913  0.0025  -16.5364   0.0000  -0.0113
 -14.500  -0.7616   0.00988   0.00562  -0.1958  0.2387  0.0026  -15.4888   0.0000  -0.0301
 -14.000  -0.7033   0.00942   0.00514  -0.1968  0.2294  0.0028  -14.4546   0.0000  -0.0530
 -13.500  -0.6445   0.00902   0.00470  -0.1978  0.2214  0.0029  -13.5303   0.0000  -0.0803
 -13.000  -0.5854   0.00863   0.00429  -0.1988  0.2208  0.0031  -12.6312   0.0000  -0.1135
 -12.500  -0.5270   0.00834   0.00391  -0.1996  0.1719  0.0033  -11.7642   0.0000  -0.1534
 -11.500  -0.4077   0.00773   0.00325  -0.2015  0.1694  0.0038  -10.0816   0.0000  -0.2717
 -11.000  -0.3479   0.00750   0.00300  -0.2024  0.1690  0.0039  -9.2833   0.0000  -0.3614
 -10.000  -0.2289   0.00716   0.00257  -0.2039  0.1422  0.0040  -7.7775   0.0000  -0.6797
  -9.500  -0.1692   0.00701   0.00239  -0.2047  0.1367  0.0041  -7.0674   0.0000  -1.0085
  -9.000  -0.1094   0.00687   0.00223  -0.2054  0.1267  0.0041  -6.3866   0.0000  -1.6977
  -8.500  -0.0496   0.00674   0.00208  -0.2062  0.1240  0.0041  -5.7329   0.0000  -4.0539
  -8.000   0.0103   0.00663   0.00195  -0.2069  0.1237  0.0042  -5.1086   0.0000  21.0355
  -7.500   0.0701   0.00653   0.00184  -0.2077  0.1234  0.0042  -4.5140   0.0000   3.3005
  -7.000   0.1299   0.00645   0.00174  -0.2084  0.1232  0.0043  -4.0466   0.0000   1.8983
  -6.500   0.1896   0.00638   0.00166  -0.2091  0.1228  0.0043  -3.6548   0.0000   1.3804
  -5.500   0.3081   0.00635   0.00156  -0.2102  0.1008  0.0044  -2.9199   0.0000   0.9467
  -5.000   0.3673   0.00633   0.00152  -0.2108  0.0980  0.0044  -2.5746   0.0000   0.8347
  -4.500   0.4266   0.00633   0.00149  -0.2114  0.0949  0.0045  -2.2446   0.0000   0.7538
  -4.000   0.4856   0.00633   0.00148  -0.2119  0.0855  0.0045  -1.9306   0.0000   0.6927
  -3.500   0.5447   0.00634   0.00148  -0.2125  0.0843  0.0046  -1.6321   0.0000   0.6449
  -3.000   0.6036   0.00636   0.00149  -0.2130  0.0842  0.0047  -1.3493   0.0000   0.6064
  -2.500   0.6624   0.00640   0.00151  -0.2135  0.0840  0.0046  -1.0816   0.0000   0.5747
  -2.000   0.7209   0.00644   0.00155  -0.2140  0.0831  0.0053  -0.9614   0.0000   0.5482
  -1.500   0.7777   0.00663   0.00165  -0.2141  0.0503  0.0063  -1.0107   0.0000   0.5257
  -1.000   0.8357   0.00672   0.00172  -0.2144  0.0474  0.0073  -1.0628   0.0000   0.5063
  -0.500   0.8934   0.00682   0.00180  -0.2148  0.0448  0.0081  -1.1153   0.0000   0.4893
   0.000   0.9510   0.00692   0.00189  -0.2151  0.0424  0.0087  -1.1681   0.0000   0.4743
   0.500   1.0086   0.00702   0.00198  -0.2154  0.0401  0.0155  -1.2229   0.0000   0.4610
   1.000   1.0660   0.00713   0.00208  -0.2157  0.0429  0.0170  -1.2876   0.0000   0.4490
   1.500   1.1229   0.00726   0.00220  -0.2159  0.0418  0.0171  -1.3632   0.0000   0.4383
   2.000   1.1796   0.00740   0.00232  -0.2161  0.0402  0.0192  -1.4395   0.0000   0.4285
   2.500   1.2323   0.00787   0.00270  -0.2154  0.0019  0.0372  -1.5273   0.0000   0.4194
   3.500   1.3431   0.00829   0.00308  -0.2154  0.0013  0.0404  -1.7599   0.0000   0.4035
   4.000   1.3979   0.00852   0.00330  -0.2152  0.0014  0.0437  -1.9044   0.0000   0.3964
   4.500   1.4523   0.00877   0.00353  -0.2151  0.0013  0.0499  -2.0827   0.0000   0.3897
   5.000   1.5064   0.00903   0.00378  -0.2149  0.0013  0.0668  -2.2654   0.0000   0.3835
   5.500   1.5598   0.00931   0.00405  -0.2145  0.0013  0.0770  -2.4520   0.0000   0.3776
   6.000   1.6131   0.00959   0.00435  -0.2142  0.0012  0.1145  -2.6430   0.0000   0.3720
   7.000   1.7174   0.01024   0.00499  -0.2132  0.0012  0.1467  -3.0354   0.0000   0.3617
   7.500   1.7683   0.01060   0.00534  -0.2125  0.0012  0.1591  -3.2361   0.0000   0.3568
   8.000   1.8182   0.01099   0.00571  -0.2116  0.0012  0.1557  -3.4396   0.0000   0.3522
   8.500   1.8680   0.01138   0.00613  -0.2107  0.0012  0.1952  -3.6467   0.0000   0.3477
   9.000   1.9169   0.01179   0.00657  -0.2097  0.0012  0.2493  -3.9186   0.0000   0.3434
   9.500   1.9636   0.01226   0.00704  -0.2083  0.0012  0.2644  -4.2743   0.0000   0.3391
  10.000   2.0114   0.01270   0.00758  -0.2073  0.0011  0.3691  -4.8590   0.0000   0.3350
  10.500   2.0545   0.01325   0.00813  -0.2052  0.0011  0.3753  -5.4488   0.0000   0.3309
  11.000   2.0877   0.01386   0.00874  -0.2012  0.0011  0.3868  -6.0097   0.0000   0.3264
  11.500   2.1175   0.01454   0.00943  -0.1966  0.0011  0.3966  -6.5697   0.0000   0.3219
  12.000   2.1466   0.01535   0.01026  -0.1920  0.0010  0.3985  -7.1480   0.0000   0.3175
  13.000   2.2041   0.01736   0.01238  -0.1837  0.0010  0.4882  -8.3616   0.0000   0.3092
  13.500   2.2300   0.01864   0.01368  -0.1794  0.0009  0.4990  -8.9799   0.0000   0.3053
  14.000   2.2539   0.02011   0.01518  -0.1752  0.0009  0.5066  -9.6019   0.0000   0.3014
  14.500   2.2767   0.02178   0.01693  -0.1712  0.0008  0.5611  -10.2337   0.0000   0.2977
  15.500   2.2643   0.02998   0.02541  -0.1577  0.0015  0.6069  -11.0033   0.0000   0.2899
  16.000   2.2748   0.03341   0.02893  -0.1541  0.0019  0.6342  -11.5864   0.0000   0.2867
  16.500   2.2890   0.03671   0.03230  -0.1513  0.0023  0.6628  -12.2151   0.0000   0.2838
  17.000   2.2945   0.04084   0.03652  -0.1482  0.0026  0.6912  -12.7619   0.0000   0.2809
  17.500   2.2966   0.04576   0.04153  -0.1454  0.0030  0.7197  -13.2840   0.0000   0.2783
  18.000   2.3065   0.05017   0.04603  -0.1435  0.0036  0.7688  -13.8871   0.0000   0.2758
  18.500   2.3056   0.05615   0.05214  -0.1418  0.0038  0.8170  -14.3990   0.0000   0.2737
  19.500   2.3016   0.07016   0.06650  -0.1412  0.0042  1.0000  -15.4238   0.0000   0.2705


