XFLR5 v6.02 Beta

 Calculated polar for: WORTMANN FX 63-137

 1 1 Reynolds number fixed          Mach number fixed         

 xtrf =   1.000 (top)        1.000 (bottom)
 Mach =   0.000     Re =    50.500 e 6     Ncrit =   9.000

  alpha     CL        CD       CDp       CM    Top Xtr Bot Xtr   Cpmin    Chinge    XCp    
 ------- -------- --------- --------- -------- ------- ------- -------- --------- ---------
 -22.000  -1.1997   0.05675   0.05360  -0.1494  0.4662  0.0015  -26.9779   0.0000   0.0886
 -21.500  -1.2414   0.04549   0.04221  -0.1583  0.4660  0.0015  -27.4192   0.0000   0.0878
 -21.000  -1.2629   0.03704   0.03366  -0.1651  0.4659  0.0016  -27.4394   0.0000   0.0864
 -20.500  -1.2648   0.03152   0.02808  -0.1692  0.4656  0.0016  -27.0755   0.0000   0.0849
 -20.000  -1.2645   0.02646   0.02291  -0.1729  0.4397  0.0016  -26.6578   0.0000   0.0835
 -19.500  -1.2498   0.02290   0.01928  -0.1752  0.4322  0.0017  -25.9954   0.0000   0.0813
 -19.000  -1.2381   0.01968   0.01601  -0.1762  0.4275  0.0017  -25.3602   0.0000   0.0805
 -18.500  -1.2003   0.01706   0.01332  -0.1805  0.4212  0.0018  -24.3968   0.0000   0.0733
 -17.500  -1.0965   0.01381   0.00986  -0.1887  0.3387  0.0019  -22.1299   0.0000   0.0530
 -17.000  -1.0427   0.01293   0.00895  -0.1903  0.3379  0.0020  -20.9796   0.0000   0.0432
 -16.500  -0.9876   0.01216   0.00815  -0.1916  0.3377  0.0022  -19.8384   0.0000   0.0321
 -16.000  -0.9324   0.01152   0.00745  -0.1927  0.3089  0.0023  -18.7224   0.0000   0.0199
 -15.500  -0.8758   0.01091   0.00678  -0.1938  0.3041  0.0024  -17.6182   0.0000   0.0055
 -15.000  -0.8187   0.01036   0.00619  -0.1949  0.2959  0.0025  -16.5369   0.0000  -0.0111
 -14.500  -0.7619   0.00992   0.00565  -0.1957  0.2413  0.0027  -15.4899   0.0000  -0.0298
 -14.000  -0.7036   0.00946   0.00516  -0.1967  0.2319  0.0029  -14.4565   0.0000  -0.0527
 -13.500  -0.6449   0.00906   0.00472  -0.1977  0.2215  0.0030  -13.5321   0.0000  -0.0799
 -13.000  -0.5858   0.00866   0.00430  -0.1987  0.2208  0.0032  -12.6328   0.0000  -0.1131
 -12.500  -0.5273   0.00837   0.00393  -0.1995  0.1761  0.0034  -11.7652   0.0000  -0.1529
 -12.000  -0.4678   0.00806   0.00358  -0.2005  0.1695  0.0036  -10.9126   0.0000  -0.2042
 -11.500  -0.4081   0.00777   0.00328  -0.2014  0.1696  0.0038  -10.0820   0.0000  -0.2708
 -11.000  -0.3484   0.00754   0.00302  -0.2023  0.1691  0.0039  -9.2839   0.0000  -0.3602
 -10.000  -0.2294   0.00719   0.00259  -0.2038  0.1435  0.0040  -7.7781   0.0000  -0.6775
  -9.500  -0.1697   0.00704   0.00241  -0.2046  0.1379  0.0041  -7.0683   0.0000  -1.0044
  -9.000  -0.1099   0.00690   0.00224  -0.2053  0.1278  0.0041  -6.3878   0.0000  -1.6883
  -8.500  -0.0500   0.00677   0.00210  -0.2061  0.1241  0.0041  -5.7341   0.0000  -4.0111
  -8.000   0.0098   0.00666   0.00197  -0.2068  0.1237  0.0042  -5.1099   0.0000  22.0176
  -7.500   0.0696   0.00657   0.00185  -0.2076  0.1235  0.0042  -4.5153   0.0000   3.3194
  -7.000   0.1294   0.00648   0.00175  -0.2083  0.1233  0.0043  -4.0471   0.0000   1.9034
  -6.500   0.1891   0.00641   0.00167  -0.2090  0.1229  0.0043  -3.6554   0.0000   1.3826
  -6.000   0.2488   0.00636   0.00160  -0.2096  0.1225  0.0043  -3.2790   0.0000   1.1120
  -5.500   0.3076   0.00637   0.00156  -0.2101  0.1015  0.0044  -2.9205   0.0000   0.9473
  -5.000   0.3669   0.00636   0.00153  -0.2107  0.0986  0.0044  -2.5752   0.0000   0.8351
  -4.500   0.4261   0.00636   0.00150  -0.2113  0.0957  0.0045  -2.2453   0.0000   0.7541
  -4.000   0.4852   0.00637   0.00149  -0.2118  0.0861  0.0045  -1.9315   0.0000   0.6929
  -3.500   0.5442   0.00638   0.00149  -0.2124  0.0844  0.0046  -1.6329   0.0000   0.6450
  -3.000   0.6031   0.00639   0.00150  -0.2129  0.0842  0.0048  -1.3501   0.0000   0.6065
  -2.500   0.6619   0.00643   0.00152  -0.2134  0.0840  0.0046  -1.0824   0.0000   0.5748
  -2.000   0.7205   0.00647   0.00155  -0.2139  0.0833  0.0053  -0.9611   0.0000   0.5482
  -1.500   0.7773   0.00666   0.00165  -0.2140  0.0510  0.0064  -1.0104   0.0000   0.5258
  -1.000   0.8352   0.00675   0.00172  -0.2143  0.0480  0.0074  -1.0625   0.0000   0.5063
  -0.500   0.8930   0.00685   0.00180  -0.2147  0.0454  0.0082  -1.1150   0.0000   0.4893
   0.000   0.9505   0.00696   0.00190  -0.2150  0.0429  0.0089  -1.1677   0.0000   0.4743
   0.500   1.0081   0.00705   0.00199  -0.2153  0.0406  0.0155  -1.2225   0.0000   0.4610
   1.000   1.0654   0.00716   0.00209  -0.2156  0.0434  0.0170  -1.2872   0.0000   0.4490
   1.500   1.1224   0.00729   0.00221  -0.2158  0.0423  0.0171  -1.3627   0.0000   0.4383
   2.000   1.1790   0.00743   0.00234  -0.2160  0.0406  0.0192  -1.4390   0.0000   0.4285
   2.500   1.2317   0.00791   0.00271  -0.2153  0.0020  0.0373  -1.5267   0.0000   0.4194
   3.500   1.3424   0.00833   0.00310  -0.2152  0.0013  0.0407  -1.7591   0.0000   0.4035
   4.000   1.3972   0.00857   0.00331  -0.2151  0.0014  0.0440  -1.9032   0.0000   0.3963
   4.500   1.4516   0.00881   0.00355  -0.2149  0.0013  0.0502  -2.0815   0.0000   0.3897
   5.000   1.5057   0.00907   0.00381  -0.2147  0.0013  0.0668  -2.2641   0.0000   0.3834
   5.500   1.5591   0.00935   0.00407  -0.2144  0.0013  0.0776  -2.4506   0.0000   0.3776
   6.000   1.6123   0.00964   0.00438  -0.2141  0.0012  0.1157  -2.6415   0.0000   0.3720
   7.000   1.7166   0.01029   0.00502  -0.2130  0.0012  0.1477  -3.0336   0.0000   0.3617
   7.500   1.7674   0.01065   0.00537  -0.2123  0.0012  0.1614  -3.2343   0.0000   0.3568
   8.000   1.8173   0.01104   0.00575  -0.2114  0.0012  0.1580  -3.4375   0.0000   0.3521
   8.500   1.8669   0.01143   0.00616  -0.2105  0.0012  0.1957  -3.6444   0.0000   0.3476
   9.000   1.9158   0.01185   0.00661  -0.2095  0.0012  0.2498  -3.9153   0.0000   0.3433
   9.500   1.9625   0.01232   0.00708  -0.2081  0.0012  0.2688  -4.2676   0.0000   0.3390
  10.000   2.0100   0.01277   0.00763  -0.2070  0.0011  0.3701  -4.8508   0.0000   0.3350
  10.500   2.0529   0.01332   0.00818  -0.2049  0.0011  0.3815  -5.4393   0.0000   0.3308
  11.000   2.0852   0.01393   0.00880  -0.2007  0.0011  0.3928  -5.9934   0.0000   0.3263
  11.500   2.1153   0.01462   0.00951  -0.1961  0.0011  0.4025  -6.5544   0.0000   0.3218
  12.000   2.1443   0.01545   0.01036  -0.1916  0.0010  0.4064  -7.1317   0.0000   0.3174
  12.500   2.1735   0.01639   0.01133  -0.1874  0.0010  0.4340  -7.7311   0.0000   0.3132
  13.500   2.2275   0.01877   0.01380  -0.1791  0.0009  0.4997  -8.9604   0.0000   0.3052
  14.000   2.2517   0.02025   0.01531  -0.1748  0.0009  0.5170  -9.5838   0.0000   0.3013
  14.500   2.2743   0.02194   0.01707  -0.1708  0.0009  0.5643  -10.2134   0.0000   0.2977
  15.000   2.2925   0.02405   0.01925  -0.1666  0.0008  0.5962  -10.8264   0.0000   0.2940
  15.500   2.2609   0.03032   0.02574  -0.1575  0.0012  0.6254  -10.9863   0.0000   0.2899
  16.000   2.2744   0.03347   0.02899  -0.1541  0.0018  0.6463  -11.5646   0.0000   0.2867
  16.500   2.2861   0.03704   0.03263  -0.1512  0.0021  0.6815  -12.1880   0.0000   0.2838
  17.000   2.2914   0.04116   0.03683  -0.1480  0.0025  0.7012  -12.7343   0.0000   0.2809
  17.500   2.2940   0.04610   0.04187  -0.1454  0.0029  0.7374  -13.2613   0.0000   0.2783
  18.000   2.3036   0.05057   0.04644  -0.1434  0.0034  0.7810  -13.8600   0.0000   0.2759
  18.500   2.3035   0.05652   0.05252  -0.1419  0.0037  0.8340  -14.3791   0.0000   0.2737
  19.000   2.3071   0.06338   0.05962  -0.1422  0.0040  1.0000  -14.9429   0.0000   0.2722
  19.500   2.2981   0.07058   0.06692  -0.1411  0.0041  1.0000  -15.3887   0.0000   0.2705


