XFLR5 v6.02 Beta

 Calculated polar for: WORTMANN FX 63-137

 1 1 Reynolds number fixed          Mach number fixed         

 xtrf =   1.000 (top)        1.000 (bottom)
 Mach =   0.000     Re =    39.250 e 6     Ncrit =   9.000

  alpha     CL        CD       CDp       CM    Top Xtr Bot Xtr   Cpmin    Chinge    XCp    
 ------- -------- --------- --------- -------- ------- ------- -------- --------- ---------
 -22.000  -1.1013   0.07009   0.06707  -0.1382  0.4962  0.0018  -25.0158   0.0000   0.0861
 -21.500  -1.1713   0.05452   0.05139  -0.1502  0.5309  0.0018  -26.0756   0.0000   0.0860
 -21.000  -1.2096   0.04365   0.04035  -0.1588  0.5048  0.0018  -26.4500   0.0000   0.0850
 -20.500  -1.2281   0.03575   0.03231  -0.1651  0.4896  0.0019  -26.4131   0.0000   0.0836
 -20.000  -1.2350   0.02965   0.02612  -0.1699  0.4813  0.0019  -26.1401   0.0000   0.0822
 -19.500  -1.2254   0.02548   0.02189  -0.1727  0.4754  0.0020  -25.5760   0.0000   0.0801
 -19.000  -1.2125   0.02167   0.01802  -0.1753  0.4692  0.0020  -24.9553   0.0000   0.0779
 -18.500  -1.1922   0.01868   0.01498  -0.1774  0.4667  0.0021  -24.2219   0.0000   0.0748
 -18.000  -1.1473   0.01616   0.01240  -0.1827  0.4656  0.0022  -23.1938   0.0000   0.0652
 -17.500  -1.0961   0.01452   0.01056  -0.1872  0.3737  0.0023  -22.0893   0.0000   0.0544
 -17.000  -1.0438   0.01353   0.00948  -0.1889  0.3570  0.0024  -20.9624   0.0000   0.0447
 -16.500  -0.9894   0.01267   0.00858  -0.1903  0.3475  0.0025  -19.8339   0.0000   0.0338
 -16.000  -0.9338   0.01191   0.00777  -0.1917  0.3392  0.0026  -18.7159   0.0000   0.0212
 -15.500  -0.8772   0.01122   0.00705  -0.1930  0.3385  0.0028  -17.6141   0.0000   0.0068
 -15.000  -0.8198   0.01061   0.00641  -0.1942  0.3376  0.0030  -16.5321   0.0000  -0.0099
 -14.500  -0.7636   0.01016   0.00585  -0.1950  0.2788  0.0031  -15.4906   0.0000  -0.0283
 -13.500  -0.6478   0.00933   0.00488  -0.1968  0.2340  0.0034  -13.5367   0.0000  -0.0771
 -13.000  -0.5888   0.00894   0.00446  -0.1978  0.2247  0.0036  -12.6334   0.0000  -0.1097
 -12.500  -0.5295   0.00860   0.00409  -0.1988  0.2210  0.0037  -11.7549   0.0000  -0.1498
 -12.000  -0.4712   0.00837   0.00377  -0.1995  0.1730  0.0038  -10.9115   0.0000  -0.1989
 -11.500  -0.4116   0.00810   0.00347  -0.2004  0.1732  0.0039  -10.0833   0.0000  -0.2639
 -11.000  -0.3519   0.00786   0.00320  -0.2013  0.1702  0.0039  -9.2865   0.0000  -0.3513
 -10.500  -0.2922   0.00764   0.00296  -0.2021  0.1696  0.0040  -8.5178   0.0000  -0.4747
 -10.000  -0.2324   0.00744   0.00274  -0.2030  0.1689  0.0040  -7.7779   0.0000  -0.6619
  -9.500  -0.1730   0.00730   0.00255  -0.2037  0.1516  0.0041  -7.0711   0.0000  -0.9757
  -9.000  -0.1134   0.00717   0.00236  -0.2044  0.1367  0.0041  -6.3939   0.0000  -1.6199
  -8.500  -0.0536   0.00704   0.00221  -0.2052  0.1314  0.0041  -5.7411   0.0000  -3.7106
  -8.000   0.0062   0.00692   0.00207  -0.2059  0.1264  0.0042  -5.1175   0.0000  34.3544
  -7.500   0.0661   0.00681   0.00195  -0.2067  0.1240  0.0042  -4.5235   0.0000   3.4718
  -7.000   0.1259   0.00673   0.00184  -0.2074  0.1238  0.0043  -4.0504   0.0000   1.9432
  -6.500   0.1856   0.00665   0.00175  -0.2081  0.1235  0.0043  -3.6594   0.0000   1.3996
  -6.000   0.2453   0.00659   0.00168  -0.2088  0.1231  0.0043  -3.2835   0.0000   1.1210
  -5.500   0.3048   0.00655   0.00162  -0.2095  0.1225  0.0044  -2.9230   0.0000   0.9515
  -5.000   0.3636   0.00657   0.00159  -0.2100  0.1032  0.0044  -2.5791   0.0000   0.8383
  -4.500   0.4227   0.00657   0.00156  -0.2105  0.1002  0.0045  -2.2504   0.0000   0.7563
  -4.000   0.4816   0.00659   0.00155  -0.2110  0.0935  0.0045  -1.9375   0.0000   0.6945
  -3.500   0.5406   0.00661   0.00155  -0.2116  0.0871  0.0046  -1.6393   0.0000   0.6461
  -3.000   0.5995   0.00663   0.00156  -0.2121  0.0847  0.0052  -1.3567   0.0000   0.6073
  -2.500   0.6582   0.00666   0.00158  -0.2126  0.0842  0.0049  -1.0888   0.0000   0.5753
  -2.000   0.7168   0.00670   0.00161  -0.2131  0.0839  0.0059  -0.9588   0.0000   0.5486
  -1.500   0.7743   0.00683   0.00171  -0.2133  0.0685  0.0072  -1.0084   0.0000   0.5260
  -1.000   0.8317   0.00697   0.00178  -0.2136  0.0537  0.0083  -1.0602   0.0000   0.5065
  -0.500   0.8894   0.00706   0.00186  -0.2139  0.0501  0.0093  -1.1126   0.0000   0.4894
   0.500   1.0042   0.00730   0.00206  -0.2145  0.0445  0.0158  -1.2195   0.0000   0.4610
   1.000   1.0616   0.00740   0.00216  -0.2148  0.0471  0.0170  -1.2839   0.0000   0.4490
   1.500   1.1183   0.00754   0.00229  -0.2149  0.0456  0.0172  -1.3592   0.0000   0.4382
   2.000   1.1748   0.00769   0.00243  -0.2151  0.0437  0.0198  -1.4352   0.0000   0.4284
   2.500   1.2272   0.00819   0.00282  -0.2144  0.0025  0.0374  -1.5220   0.0000   0.4193
   3.500   1.3376   0.00863   0.00322  -0.2142  0.0014  0.0428  -1.7529   0.0000   0.4033
   4.000   1.3922   0.00888   0.00345  -0.2141  0.0017  0.0462  -1.8947   0.0000   0.3962
   5.000   1.5003   0.00940   0.00396  -0.2136  0.0013  0.0672  -2.2542   0.0000   0.3832
   5.500   1.5535   0.00969   0.00425  -0.2133  0.0013  0.0823  -2.4400   0.0000   0.3773
   6.500   1.6588   0.01031   0.00490  -0.2124  0.0012  0.1467  -2.8238   0.0000   0.3665
   7.000   1.7101   0.01067   0.00524  -0.2118  0.0012  0.1650  -3.0204   0.0000   0.3614
   7.500   1.7610   0.01103   0.00562  -0.2111  0.0012  0.1945  -3.2206   0.0000   0.3566
   8.000   1.8104   0.01144   0.00602  -0.2101  0.0012  0.1945  -3.4225   0.0000   0.3518
   8.500   1.8598   0.01185   0.00647  -0.2092  0.0012  0.2492  -3.6285   0.0000   0.3474
   9.500   1.9538   0.01278   0.00744  -0.2065  0.0012  0.3088  -4.2173   0.0000   0.3387
  10.000   2.0003   0.01327   0.00802  -0.2052  0.0011  0.4155  -4.7918   0.0000   0.3346
  10.500   2.0415   0.01385   0.00862  -0.2028  0.0011  0.4336  -5.3674   0.0000   0.3304
  11.000   2.0681   0.01451   0.00930  -0.1975  0.0011  0.4394  -5.8817   0.0000   0.3256
  11.500   2.0981   0.01529   0.01010  -0.1930  0.0010  0.4542  -6.4404   0.0000   0.3211
  12.000   2.1282   0.01619   0.01101  -0.1889  0.0010  0.4580  -7.0199   0.0000   0.3168
  12.500   2.1568   0.01722   0.01210  -0.1847  0.0010  0.4989  -7.6106   0.0000   0.3127
  13.000   2.1835   0.01844   0.01336  -0.1805  0.0010  0.5268  -8.2085   0.0000   0.3086
  13.500   2.2079   0.01987   0.01482  -0.1762  0.0009  0.5392  -8.8098   0.0000   0.3046
  14.000   2.2313   0.02151   0.01652  -0.1721  0.0009  0.5775  -9.4220   0.0000   0.3009
  14.500   2.2528   0.02339   0.01849  -0.1682  0.0009  0.6289  -10.0369   0.0000   0.2972
  15.000   2.2725   0.02558   0.02074  -0.1644  0.0009  0.6584  -10.6558   0.0000   0.2937
  15.500   2.2904   0.02809   0.02332  -0.1608  0.0008  0.6909  -11.2768   0.0000   0.2904
  16.000   2.3057   0.03099   0.02628  -0.1574  0.0007  0.7208  -11.8927   0.0000   0.2872
  17.000   2.2679   0.04392   0.03960  -0.1470  0.0015  0.7985  -12.4797   0.0000   0.2811
  18.500   2.2796   0.06074   0.05686  -0.1428  0.0027  1.0000  -14.1553   0.0000   0.2747
  19.000   2.2733   0.06754   0.06374  -0.1416  0.0029  1.0000  -14.6173   0.0000   0.2728


