XFLR5 v6.02 Beta

 Calculated polar for: WORTMANN FX 63-137

 1 1 Reynolds number fixed          Mach number fixed         

 xtrf =   1.000 (top)        1.000 (bottom)
 Mach =   0.000     Re =     6.000 e 6     Ncrit =   9.000

  alpha     CL        CD       CDp       CM    Top Xtr Bot Xtr   Cpmin    Chinge    XCp    
 ------- -------- --------- --------- -------- ------- ------- -------- --------- ---------
 -16.500  -0.7814   0.04409   0.04163  -0.1495  0.8729  0.0040  -15.6917   0.0000   0.0297
 -16.000  -0.8039   0.03378   0.03091  -0.1598  0.8058  0.0040  -15.8525   0.0000   0.0245
 -15.500  -0.8031   0.02756   0.02445  -0.1654  0.7768  0.0041  -15.5876   0.0000   0.0188
 -15.000  -0.7942   0.02309   0.01977  -0.1688  0.7454  0.0041  -15.1703   0.0000   0.0137
 -14.500  -0.7583   0.01953   0.01602  -0.1750  0.7206  0.0041  -14.4675   0.0000  -0.0039
 -14.000  -0.7039   0.01672   0.01307  -0.1826  0.7132  0.0042  -13.5843   0.0000  -0.0324
 -13.500  -0.6517   0.01526   0.01142  -0.1855  0.6851  0.0043  -12.7011   0.0000  -0.0576
 -13.000  -0.5983   0.01421   0.01023  -0.1873  0.6551  0.0043  -11.8129   0.0000  -0.0863
 -12.500  -0.5459   0.01356   0.00936  -0.1883  0.5970  0.0044  -10.9455   0.0000  -0.1185
  -5.000   0.3321   0.00856   0.00246  -0.2027  0.2202  0.0055  -2.2332   0.0000   0.8720
  -4.500   0.3912   0.00854   0.00232  -0.2033  0.1956  0.0052  -1.9788   0.0000   0.7786
  -4.000   0.4510   0.00848   0.00214  -0.2041  0.1857  0.0049  -1.7590   0.0000   0.7092
  -3.500   0.5111   0.00841   0.00200  -0.2049  0.1759  0.0047  -1.6045   0.0000   0.6558
  -3.000   0.5708   0.00835   0.00198  -0.2056  0.1699  0.0147  -1.3936   0.0000   0.6138
  -2.500   0.6293   0.00839   0.00200  -0.2061  0.1666  0.0153  -1.1190   0.0000   0.5800
  -2.000   0.6852   0.00866   0.00211  -0.2061  0.1302  0.0153  -0.9389   0.0000   0.5523
  -1.500   0.7432   0.00872   0.00215  -0.2065  0.1241  0.0159  -0.9872   0.0000   0.5284
  -1.000   0.8011   0.00880   0.00222  -0.2069  0.1232  0.0162  -1.0390   0.0000   0.5080
   0.000   0.9138   0.00918   0.00249  -0.2071  0.0995  0.0167  -1.1417   0.0000   0.4748
   1.000   1.0267   0.00951   0.00277  -0.2074  0.0896  0.0173  -1.2548   0.0000   0.4487
   1.500   1.0827   0.00968   0.00293  -0.2075  0.0849  0.0246  -1.3264   0.0000   0.4376
   2.000   1.1390   0.00983   0.00312  -0.2076  0.0841  0.0370  -1.4016   0.0000   0.4276
   2.500   1.1906   0.01035   0.00352  -0.2069  0.0527  0.0446  -1.4831   0.0000   0.4184
   3.000   1.2450   0.01062   0.00380  -0.2067  0.0472  0.0683  -1.5812   0.0000   0.4099
   3.500   1.2983   0.01094   0.00410  -0.2063  0.0409  0.0826  -1.6990   0.0000   0.4021
   4.000   1.3522   0.01119   0.00439  -0.2061  0.0401  0.1030  -1.8245   0.0000   0.3948
   4.500   1.4057   0.01148   0.00470  -0.2058  0.0372  0.1444  -1.9994   0.0000   0.3881
   5.000   1.4562   0.01198   0.00519  -0.2051  0.0251  0.1963  -2.1769   0.0000   0.3817
   6.000   1.5582   0.01304   0.00656  -0.2041  0.0028  0.4545  -2.5352   0.0000   0.3703
   6.500   1.6071   0.01351   0.00706  -0.2030  0.0020  0.4883  -2.7187   0.0000   0.3648
   7.000   1.6545   0.01402   0.00760  -0.2017  0.0015  0.5203  -2.9044   0.0000   0.3596
   7.500   1.6994   0.01459   0.00818  -0.1999  0.0013  0.5349  -3.0899   0.0000   0.3544
   8.000   1.7402   0.01521   0.00882  -0.1974  0.0013  0.5539  -3.2714   0.0000   0.3493
   8.500   1.7739   0.01591   0.00956  -0.1934  0.0013  0.5645  -3.4425   0.0000   0.3441
   9.000   1.8086   0.01669   0.01042  -0.1899  0.0013  0.6101  -3.6183   0.0000   0.3391
   9.500   1.8421   0.01760   0.01141  -0.1863  0.0012  0.6533  -3.8459   0.0000   0.3344
  10.000   1.8734   0.01866   0.01254  -0.1826  0.0012  0.6883  -4.0797   0.0000   0.3297
  10.500   1.9019   0.01992   0.01388  -0.1785  0.0012  0.7116  -4.4786   0.0000   0.3252
  11.000   1.9289   0.02141   0.01545  -0.1746  0.0012  0.7464  -4.9256   0.0000   0.3209
  11.500   1.9535   0.02320   0.01739  -0.1708  0.0011  0.7962  -5.3408   0.0000   0.3167
  14.000   2.0507   0.03587   0.03060  -0.1538  0.0010  1.0000  -7.8936   0.0000   0.2988
  14.500   2.0633   0.03949   0.03430  -0.1508  0.0009  1.0000  -8.3869   0.0000   0.2957
  15.000   2.0713   0.04362   0.03851  -0.1480  0.0009  1.0000  -8.8577   0.0000   0.2928
  15.500   2.0778   0.04827   0.04326  -0.1455  0.0009  1.0000  -9.3267   0.0000   0.2901
  16.000   2.0808   0.05360   0.04871  -0.1433  0.0009  1.0000  -9.7572   0.0000   0.2877
  16.500   2.0824   0.05933   0.05455  -0.1417  0.0009  1.0000  -10.2053   0.0000   0.2855
  17.000   2.0841   0.06519   0.06052  -0.1404  0.0008  1.0000  -10.6654   0.0000   0.2835
  17.500   2.0860   0.07110   0.06653  -0.1394  0.0008  1.0000  -11.1357   0.0000   0.2816
  18.000   2.0807   0.07816   0.07370  -0.1389  0.0008  1.0000  -11.5466   0.0000   0.2801
  18.500   2.0704   0.08579   0.08147  -0.1388  0.0008  1.0000  -11.9142   0.0000   0.2789
  19.000   2.0588   0.09404   0.08986  -0.1393  0.0008  1.0000  -12.2684   0.0000   0.2781
  19.500   2.0474   0.10242   0.09837  -0.1404  0.0008  1.0000  -12.6211   0.0000   0.2775
  20.000   2.0433   0.10961   0.10567  -0.1415  0.0007  1.0000  -13.0728   0.0000   0.2767


