xflr5 v6.59

 Calculated polar for: WORTMANN FX 63-137 AIRFOIL

 1 1 Reynolds number fixed          Mach number fixed         

 xtrf =   1.000 (top)        1.000 (bottom)
 Mach =   0.000     Re =     4.400 e 6     Ncrit =   9.000

  alpha     CL        CD       CDp       Cm    Top Xtr Bot Xtr   Cpmin    Chinge    XCp    
 ------- -------- --------- --------- -------- ------- ------- -------- --------- ---------
 -15.300  -0.6552   0.04520   0.04283  -0.1479  0.8574  0.0043  -13.0629   0.0000   0.0000   0.0000  -0.0050
 -15.100  -0.6750   0.03925   0.03670  -0.1534  0.8404  0.0043  -13.3115   0.0000   0.0000   0.0000  -0.0051
 -15.000  -0.6814   0.03696   0.03433  -0.1555  0.8296  0.0043  -13.3712   0.0000   0.0000   0.0000  -0.0055
 -14.900  -0.6829   0.03542   0.03273  -0.1569  0.8210  0.0043  -13.3529   0.0000   0.0000   0.0000  -0.0067
 -14.800  -0.6859   0.03371   0.03095  -0.1584  0.8084  0.0043  -13.3549   0.0000   0.0000   0.0000  -0.0075
 -14.700  -0.6859   0.03244   0.02962  -0.1595  0.8000  0.0043  -13.3112   0.0000   0.0000   0.0000  -0.0087
 -14.600  -0.6869   0.03098   0.02812  -0.1609  0.7943  0.0044  -13.2820   0.0000   0.0000   0.0000  -0.0100
 -14.500  -0.6858   0.02989   0.02698  -0.1618  0.7879  0.0044  -13.2206   0.0000   0.0000   0.0000  -0.0114
 -14.400  -0.6861   0.02860   0.02564  -0.1630  0.7810  0.0044  -13.1780   0.0000   0.0000   0.0000  -0.0127
 -14.300  -0.6868   0.02732   0.02430  -0.1640  0.7756  0.0044  -13.1431   0.0000   0.0000   0.0000  -0.0135
 -14.200  -0.6854   0.02631   0.02327  -0.1648  0.7723  0.0044  -13.0718   0.0000   0.0000   0.0000  -0.0149
 -14.100  -0.6830   0.02559   0.02251  -0.1652  0.7661  0.0044  -12.9823   0.0000   0.0000   0.0000  -0.0160
 -14.000  -0.6811   0.02481   0.02169  -0.1657  0.7575  0.0044  -12.9013   0.0000   0.0000   0.0000  -0.0172
 -13.900  -0.6754   0.02415   0.02099  -0.1665  0.7493  0.0044  -12.7800   0.0000   0.0000   0.0000  -0.0203
 -13.800  -0.6685   0.02355   0.02038  -0.1674  0.7460  0.0044  -12.6442   0.0000   0.0000   0.0000  -0.0240
 -13.700  -0.6609   0.02296   0.01977  -0.1684  0.7430  0.0044  -12.5033   0.0000   0.0000   0.0000  -0.0283
 -13.600  -0.6524   0.02253   0.01934  -0.1691  0.7401  0.0044  -12.3469   0.0000   0.0000   0.0000  -0.0327
 -13.500  -0.6431   0.02223   0.01904  -0.1697  0.7377  0.0044  -12.1780   0.0000   0.0000   0.0000  -0.0373
 -13.400  -0.6328   0.02212   0.01895  -0.1699  0.7352  0.0045  -11.9921   0.0000   0.0000   0.0000  -0.0420
 -13.300  -0.6205   0.02250   0.01938  -0.1693  0.7328  0.0045  -11.7649   0.0000   0.0000   0.0000  -0.0464
  -7.700   0.0127   0.00885   0.00285  -0.1989  0.3695  0.0063  -4.3090   0.0000   0.0000   0.0000  16.4431
  -7.600   0.0245   0.00882   0.00280  -0.1990  0.3650  0.0063  -4.2327   0.0000   0.0000   0.0000   8.6201
  -7.500   0.0363   0.00880   0.00276  -0.1992  0.3607  0.0063  -4.1570   0.0000   0.0000   0.0000   5.9032
  -7.400   0.0481   0.00878   0.00271  -0.1993  0.3564  0.0062  -4.0818   0.0000   0.0000   0.0000   4.5215
  -7.300   0.0598   0.00877   0.00267  -0.1994  0.3519  0.0062  -4.0069   0.0000   0.0000   0.0000   3.6812
  -7.200   0.0717   0.00874   0.00263  -0.1996  0.3472  0.0061  -3.9322   0.0000   0.0000   0.0000   3.1138
  -7.100   0.0837   0.00871   0.00259  -0.1997  0.3422  0.0061  -3.8576   0.0000   0.0000   0.0000   2.7060
  -7.000   0.0957   0.00868   0.00255  -0.1999  0.3391  0.0061  -3.7830   0.0000   0.0000   0.0000   2.3985
  -6.900   0.1077   0.00865   0.00250  -0.2001  0.3390  0.0060  -3.7084   0.0000   0.0000   0.0000   2.1587
  -6.800   0.1198   0.00861   0.00246  -0.2003  0.3383  0.0060  -3.6346   0.0000   0.0000   0.0000   1.9677
  -6.700   0.1318   0.00858   0.00243  -0.2004  0.3376  0.0060  -3.5613   0.0000   0.0000   0.0000   1.8116
  -6.600   0.1438   0.00856   0.00239  -0.2006  0.3367  0.0059  -3.4885   0.0000   0.0000   0.0000   1.6818
  -6.500   0.1557   0.00853   0.00236  -0.2007  0.3354  0.0059  -3.4161   0.0000   0.0000   0.0000   1.5722
  -6.400   0.1677   0.00851   0.00233  -0.2009  0.3348  0.0058  -3.3437   0.0000   0.0000   0.0000   1.4781
  -6.300   0.1797   0.00848   0.00231  -0.2010  0.3338  0.0058  -3.2715   0.0000   0.0000   0.0000   1.3968
  -6.200   0.1901   0.00859   0.00233  -0.2009  0.3097  0.0058  -3.2043   0.0000   0.0000   0.0000   1.3328
  -6.100   0.2018   0.00859   0.00231  -0.2010  0.3050  0.0058  -3.1327   0.0000   0.0000   0.0000   1.2701
  -6.000   0.2134   0.00859   0.00230  -0.2011  0.3011  0.0058  -3.0610   0.0000   0.0000   0.0000   1.2145
  -5.900   0.2250   0.00860   0.00229  -0.2012  0.2972  0.0058  -2.9885   0.0000   0.0000   0.0000   1.1648
  -5.800   0.2366   0.00861   0.00228  -0.2013  0.2932  0.0058  -2.9150   0.0000   0.0000   0.0000   1.1199
  -5.700   0.2482   0.00862   0.00228  -0.2013  0.2891  0.0057  -2.8399   0.0000   0.0000   0.0000   1.0792
  -5.600   0.2599   0.00862   0.00228  -0.2014  0.2849  0.0057  -2.7592   0.0000   0.0000   0.0000   1.0420
  -5.500   0.2702   0.00874   0.00247  -0.2012  0.2806  0.0057  -2.5937   0.0000   0.0000   0.0000   1.0108
  -5.400   0.2820   0.00872   0.00245  -0.2014  0.2786  0.0056  -2.5270   0.0000   0.0000   0.0000   0.9790
  -5.300   0.2940   0.00870   0.00243  -0.2015  0.2779  0.0056  -2.4626   0.0000   0.0000   0.0000   0.9496
  -5.200   0.3059   0.00869   0.00241  -0.2017  0.2772  0.0055  -2.4002   0.0000   0.0000   0.0000   0.9225
  -5.100   0.3179   0.00867   0.00239  -0.2018  0.2763  0.0055  -2.3397   0.0000   0.0000   0.0000   0.8974
  -5.000   0.3298   0.00865   0.00237  -0.2020  0.2751  0.0054  -2.2808   0.0000   0.0000   0.0000   0.8742
  -4.900   0.3418   0.00862   0.00234  -0.2021  0.2748  0.0054  -2.2233   0.0000   0.0000   0.0000   0.8524
  -4.700   0.3642   0.00871   0.00234  -0.2022  0.2496  0.0053  -2.1166   0.0000   0.0000   0.0000   0.8150
  -4.600   0.3760   0.00871   0.00231  -0.2023  0.2466  0.0053  -2.0638   0.0000   0.0000   0.0000   0.7974
  -4.500   0.3878   0.00871   0.00229  -0.2024  0.2436  0.0053  -2.0124   0.0000   0.0000   0.0000   0.7808
  -4.400   0.3996   0.00871   0.00225  -0.2025  0.2403  0.0052  -1.9635   0.0000   0.0000   0.0000   0.7652
  -4.300   0.4114   0.00871   0.00223  -0.2027  0.2373  0.0052  -1.9150   0.0000   0.0000   0.0000   0.7506
  -4.200   0.4232   0.00870   0.00220  -0.2028  0.2343  0.0052  -1.8682   0.0000   0.0000   0.0000   0.7367
  -4.100   0.4351   0.00869   0.00217  -0.2029  0.2312  0.0051  -1.8235   0.0000   0.0000   0.0000   0.7234
  -4.000   0.4476   0.00865   0.00209  -0.2032  0.2277  0.0051  -1.8223   0.0000   0.0000   0.0000   0.7106
  -3.900   0.4596   0.00863   0.00207  -0.2033  0.2246  0.0051  -1.7873   0.0000   0.0000   0.0000   0.6987
  -3.800   0.4716   0.00862   0.00205  -0.2035  0.2222  0.0051  -1.7458   0.0000   0.0000   0.0000   0.6874
  -3.700   0.4835   0.00861   0.00204  -0.2036  0.2218  0.0051  -1.7034   0.0000   0.0000   0.0000   0.6767
  -3.600   0.4954   0.00860   0.00203  -0.2037  0.2213  0.0052  -1.6632   0.0000   0.0000   0.0000   0.6666
  -3.500   0.5082   0.00852   0.00200  -0.2041  0.2208  0.0137  -1.6815   0.0000   0.0000   0.0000   0.6566
  -3.400   0.5200   0.00852   0.00200  -0.2042  0.2203  0.0142  -1.6189   0.0000   0.0000   0.0000   0.6474
  -3.300   0.5318   0.00852   0.00200  -0.2043  0.2197  0.0146  -1.5565   0.0000   0.0000   0.0000   0.6387
  -3.200   0.5435   0.00853   0.00200  -0.2044  0.2189  0.0148  -1.4939   0.0000   0.0000   0.0000   0.6303
  -3.100   0.5552   0.00853   0.00201  -0.2045  0.2181  0.0151  -1.4308   0.0000   0.0000   0.0000   0.6223
  -3.000   0.5669   0.00854   0.00201  -0.2046  0.2178  0.0153  -1.3672   0.0000   0.0000   0.0000   0.6146
  -2.900   0.5772   0.00866   0.00207  -0.2045  0.1999  0.0155  -1.3073   0.0000   0.0000   0.0000   0.6077
  -2.800   0.5885   0.00870   0.00209  -0.2045  0.1943  0.0157  -1.2449   0.0000   0.0000   0.0000   0.6007
  -2.700   0.6000   0.00872   0.00210  -0.2046  0.1923  0.0159  -1.1839   0.0000   0.0000   0.0000   0.5939
  -2.600   0.6115   0.00874   0.00211  -0.2047  0.1903  0.0160  -1.1270   0.0000   0.0000   0.0000   0.5874
  -2.500   0.6231   0.00876   0.00211  -0.2047  0.1883  0.0160  -1.0771   0.0000   0.0000   0.0000   0.5811
  -2.400   0.6347   0.00877   0.00211  -0.2048  0.1857  0.0158  -1.0423   0.0000   0.0000   0.0000   0.5749
  -2.300   0.6458   0.00884   0.00211  -0.2048  0.1689  0.0154  -1.0182   0.0000   0.0000   0.0000   0.5692
  -2.200   0.6575   0.00885   0.00212  -0.2049  0.1684  0.0156  -0.9642   0.0000   0.0000   0.0000   0.5635
  -2.100   0.6691   0.00886   0.00212  -0.2050  0.1678  0.0157  -0.9273   0.0000   0.0000   0.0000   0.5580
  -2.000   0.6807   0.00887   0.00213  -0.2051  0.1671  0.0159  -0.9360   0.0000   0.0000   0.0000   0.5527
  -1.900   0.6923   0.00889   0.00214  -0.2052  0.1663  0.0160  -0.9448   0.0000   0.0000   0.0000   0.5476
  -1.800   0.7039   0.00890   0.00215  -0.2053  0.1661  0.0161  -0.9536   0.0000   0.0000   0.0000   0.5426
  -1.700   0.7143   0.00902   0.00222  -0.2051  0.1502  0.0162  -0.9622   0.0000   0.0000   0.0000   0.5380
  -1.600   0.7256   0.00906   0.00224  -0.2051  0.1454  0.0163  -0.9724   0.0000   0.0000   0.0000   0.5334
  -1.500   0.7370   0.00909   0.00225  -0.2052  0.1439  0.0164  -0.9827   0.0000   0.0000   0.0000   0.5289
  -1.400   0.7485   0.00911   0.00227  -0.2053  0.1423  0.0165  -0.9930   0.0000   0.0000   0.0000   0.5246
  -1.300   0.7599   0.00914   0.00229  -0.2053  0.1408  0.0165  -1.0033   0.0000   0.0000   0.0000   0.5204
  -1.200   0.7713   0.00917   0.00230  -0.2054  0.1393  0.0166  -1.0136   0.0000   0.0000   0.0000   0.5163
  -1.100   0.7827   0.00920   0.00232  -0.2054  0.1378  0.0166  -1.0239   0.0000   0.0000   0.0000   0.5123
  -1.000   0.7941   0.00922   0.00233  -0.2055  0.1363  0.0167  -1.0341   0.0000   0.0000   0.0000   0.5084
  -0.900   0.8056   0.00925   0.00235  -0.2055  0.1348  0.0167  -1.0445   0.0000   0.0000   0.0000   0.5046
  -0.800   0.8171   0.00927   0.00236  -0.2056  0.1332  0.0167  -1.0548   0.0000   0.0000   0.0000   0.5010
  -0.700   0.8285   0.00930   0.00238  -0.2056  0.1303  0.0167  -1.0651   0.0000   0.0000   0.0000   0.4974
  -0.600   0.8399   0.00933   0.00240  -0.2057  0.1264  0.0168  -1.0754   0.0000   0.0000   0.0000   0.4939
  -0.500   0.8513   0.00935   0.00242  -0.2057  0.1240  0.0168  -1.0858   0.0000   0.0000   0.0000   0.4906
  -0.400   0.8628   0.00937   0.00244  -0.2058  0.1237  0.0169  -1.0962   0.0000   0.0000   0.0000   0.4873
  -0.300   0.8743   0.00939   0.00245  -0.2059  0.1235  0.0171  -1.1066   0.0000   0.0000   0.0000   0.4841
   0.000   0.9087   0.00945   0.00250  -0.2061  0.1226  0.0184  -1.1379   0.0000   0.0000   0.0000   0.4749
   0.100   0.9201   0.00947   0.00252  -0.2061  0.1223  0.0184  -1.1483   0.0000   0.0000   0.0000   0.4720
   0.200   0.9314   0.00950   0.00255  -0.2061  0.1218  0.0184  -1.1588   0.0000   0.0000   0.0000   0.4692
   0.300   0.9428   0.00953   0.00257  -0.2062  0.1213  0.0182  -1.1692   0.0000   0.0000   0.0000   0.4664
   0.400   0.9541   0.00956   0.00261  -0.2062  0.1205  0.0180  -1.1796   0.0000   0.0000   0.0000   0.4637
   0.500   0.9654   0.00959   0.00264  -0.2062  0.1198  0.0178  -1.1900   0.0000   0.0000   0.0000   0.4610
   0.600   0.9752   0.00975   0.00274  -0.2060  0.1045  0.0176  -1.1998   0.0000   0.0000   0.0000   0.4585
   0.700   0.9863   0.00980   0.00278  -0.2060  0.1024  0.0175  -1.2121   0.0000   0.0000   0.0000   0.4560
   0.900   1.0085   0.00989   0.00286  -0.2059  0.1006  0.0174  -1.2367   0.0000   0.0000   0.0000   0.4511
   1.000   1.0196   0.00993   0.00290  -0.2059  0.0996  0.0174  -1.2490   0.0000   0.0000   0.0000   0.4487
   1.100   1.0306   0.00998   0.00294  -0.2059  0.0986  0.0176  -1.2612   0.0000   0.0000   0.0000   0.4464
   1.200   1.0416   0.01003   0.00298  -0.2059  0.0975  0.0210  -1.2735   0.0000   0.0000   0.0000   0.4441
   1.300   1.0525   0.01009   0.00301  -0.2058  0.0964  0.0242  -1.2878   0.0000   0.0000   0.0000   0.4418
   1.400   1.0638   0.01012   0.00307  -0.2059  0.0953  0.0257  -1.3028   0.0000   0.0000   0.0000   0.4397
   1.500   1.0751   0.01015   0.00311  -0.2059  0.0941  0.0340  -1.3179   0.0000   0.0000   0.0000   0.4375
   1.600   1.0863   0.01019   0.00315  -0.2059  0.0928  0.0353  -1.3329   0.0000   0.0000   0.0000   0.4354
   1.700   1.0974   0.01023   0.00319  -0.2059  0.0914  0.0362  -1.3480   0.0000   0.0000   0.0000   0.4334
   1.800   1.1084   0.01027   0.00323  -0.2059  0.0900  0.0369  -1.3631   0.0000   0.0000   0.0000   0.4314
   1.900   1.1195   0.01031   0.00327  -0.2059  0.0887  0.0374  -1.3781   0.0000   0.0000   0.0000   0.4294
   2.000   1.1306   0.01035   0.00331  -0.2059  0.0875  0.0378  -1.3932   0.0000   0.0000   0.0000   0.4274
   2.100   1.1416   0.01039   0.00335  -0.2059  0.0864  0.0382  -1.4083   0.0000   0.0000   0.0000   0.4255
   2.200   1.1527   0.01043   0.00339  -0.2059  0.0854  0.0393  -1.4234   0.0000   0.0000   0.0000   0.4236
   2.300   1.1638   0.01047   0.00343  -0.2059  0.0845  0.0454  -1.4385   0.0000   0.0000   0.0000   0.4218
   2.400   1.1746   0.01052   0.00349  -0.2058  0.0834  0.0477  -1.4534   0.0000   0.0000   0.0000   0.4200
   2.500   1.1853   0.01059   0.00356  -0.2058  0.0808  0.0498  -1.4683   0.0000   0.0000   0.0000   0.4182
   2.600   1.1936   0.01086   0.00376  -0.2052  0.0632  0.0517  -1.4905   0.0000   0.0000   0.0000   0.4164
   2.700   1.2043   0.01094   0.00382  -0.2052  0.0594  0.0658  -1.5096   0.0000   0.0000   0.0000   0.4147
   2.800   1.2150   0.01100   0.00388  -0.2051  0.0564  0.0715  -1.5281   0.0000   0.0000   0.0000   0.4130
   2.900   1.2258   0.01106   0.00394  -0.2051  0.0537  0.0785  -1.5466   0.0000   0.0000   0.0000   0.4113
   3.000   1.2367   0.01111   0.00400  -0.2050  0.0519  0.0816  -1.5652   0.0000   0.0000   0.0000   0.4097
   3.100   1.2476   0.01116   0.00405  -0.2050  0.0515  0.0856  -1.5869   0.0000   0.0000   0.0000   0.4081
   3.200   1.2587   0.01120   0.00411  -0.2051  0.0511  0.1006  -1.6103   0.0000   0.0000   0.0000   0.4065
   3.300   1.2694   0.01126   0.00416  -0.2050  0.0507  0.1024  -1.6335   0.0000   0.0000   0.0000   0.4049
   3.400   1.2801   0.01131   0.00422  -0.2049  0.0502  0.1037  -1.6569   0.0000   0.0000   0.0000   0.4034
   3.500   1.2908   0.01137   0.00428  -0.2048  0.0496  0.1097  -1.6805   0.0000   0.0000   0.0000   0.4019
   3.600   1.3015   0.01144   0.00434  -0.2048  0.0488  0.1155  -1.7044   0.0000   0.0000   0.0000   0.4004
   3.700   1.3121   0.01150   0.00442  -0.2047  0.0477  0.1208  -1.7286   0.0000   0.0000   0.0000   0.3989
   3.800   1.3226   0.01157   0.00449  -0.2046  0.0466  0.1250  -1.7528   0.0000   0.0000   0.0000   0.3974
   3.900   1.3340   0.01157   0.00451  -0.2047  0.0499  0.1258  -1.7755   0.0000   0.0000   0.0000   0.3960
   4.000   1.3451   0.01161   0.00457  -0.2047  0.0496  0.1442  -1.8100   0.0000   0.0000   0.0000   0.3946
   4.100   1.3556   0.01168   0.00464  -0.2046  0.0490  0.1472  -1.8441   0.0000   0.0000   0.0000   0.3932
   4.200   1.3660   0.01176   0.00473  -0.2045  0.0476  0.1585  -1.8783   0.0000   0.0000   0.0000   0.3919
   4.300   1.3763   0.01185   0.00483  -0.2044  0.0453  0.1695  -1.9127   0.0000   0.0000   0.0000   0.3905
   4.400   1.3869   0.01193   0.00493  -0.2044  0.0427  0.1934  -1.9473   0.0000   0.0000   0.0000   0.3892
   4.500   1.3970   0.01202   0.00501  -0.2042  0.0400  0.1996  -1.9814   0.0000   0.0000   0.0000   0.3879
   4.600   1.4078   0.01208   0.00509  -0.2042  0.0382  0.2158  -2.0166   0.0000   0.0000   0.0000   0.3866
   4.700   1.4192   0.01211   0.00517  -0.2044  0.0380  0.2478  -2.0534   0.0000   0.0000   0.0000   0.3854
   4.800   1.4297   0.01218   0.00524  -0.2043  0.0378  0.2563  -2.0889   0.0000   0.0000   0.0000   0.3841
   4.900   1.4408   0.01222   0.00532  -0.2043  0.0376  0.2786  -2.1256   0.0000   0.0000   0.0000   0.3829
   5.000   1.4520   0.01226   0.00540  -0.2044  0.0373  0.3075  -2.1628   0.0000   0.0000   0.0000   0.3817
   5.100   1.4628   0.01232   0.00549  -0.2044  0.0371  0.3269  -2.1995   0.0000   0.0000   0.0000   0.3805
   5.200   1.4744   0.01235   0.00558  -0.2047  0.0367  0.3659  -2.2378   0.0000   0.0000   0.0000   0.3794
   5.300   1.4849   0.01242   0.00567  -0.2046  0.0362  0.3824  -2.2747   0.0000   0.0000   0.0000   0.3782
   5.400   1.4967   0.01244   0.00578  -0.2049  0.0354  0.4336  -2.3143   0.0000   0.0000   0.0000   0.3772
   5.500   1.5051   0.01269   0.00602  -0.2045  0.0261  0.4651  -2.3526   0.0000   0.0000   0.0000   0.3760
   5.600   1.5142   0.01286   0.00618  -0.2042  0.0227  0.4793  -2.3796   0.0000   0.0000   0.0000   0.3748
   5.700   1.5234   0.01300   0.00632  -0.2039  0.0194  0.4872  -2.4063   0.0000   0.0000   0.0000   0.3736
   5.800   1.5332   0.01311   0.00642  -0.2036  0.0171  0.4932  -2.4398   0.0000   0.0000   0.0000   0.3725
   6.000   1.5473   0.01369   0.00698  -0.2021  0.0039  0.4992  -2.5131   0.0000   0.0000   0.0000   0.3700
   6.100   1.5566   0.01381   0.00709  -0.2018  0.0036  0.5005  -2.5489   0.0000   0.0000   0.0000   0.3688
   6.200   1.5660   0.01392   0.00721  -0.2015  0.0034  0.5055  -2.5851   0.0000   0.0000   0.0000   0.3677
   6.300   1.5754   0.01403   0.00732  -0.2012  0.0032  0.5111  -2.6214   0.0000   0.0000   0.0000   0.3666
   6.400   1.5848   0.01413   0.00743  -0.2010  0.0031  0.5159  -2.6578   0.0000   0.0000   0.0000   0.3655
   6.500   1.5942   0.01424   0.00754  -0.2007  0.0029  0.5201  -2.6941   0.0000   0.0000   0.0000   0.3644
   6.600   1.6035   0.01435   0.00766  -0.2004  0.0028  0.5251  -2.7303   0.0000   0.0000   0.0000   0.3633
   6.700   1.6127   0.01446   0.00778  -0.2001  0.0026  0.5302  -2.7665   0.0000   0.0000   0.0000   0.3622
   6.800   1.6218   0.01457   0.00789  -0.1997  0.0024  0.5354  -2.8027   0.0000   0.0000   0.0000   0.3612
   6.900   1.6311   0.01468   0.00802  -0.1994  0.0022  0.5477  -2.8394   0.0000   0.0000   0.0000   0.3601
   7.000   1.6402   0.01479   0.00814  -0.1991  0.0021  0.5547  -2.8759   0.0000   0.0000   0.0000   0.3591
   7.100   1.6490   0.01491   0.00826  -0.1987  0.0020  0.5575  -2.9121   0.0000   0.0000   0.0000   0.3580
   7.200   1.6577   0.01503   0.00838  -0.1983  0.0018  0.5596  -2.9482   0.0000   0.0000   0.0000   0.3570
   7.300   1.6663   0.01516   0.00851  -0.1979  0.0017  0.5615  -2.9844   0.0000   0.0000   0.0000   0.3559
   7.400   1.6747   0.01528   0.00863  -0.1974  0.0016  0.5631  -3.0202   0.0000   0.0000   0.0000   0.3549
   7.500   1.6822   0.01541   0.00876  -0.1968  0.0015  0.5645  -3.0547   0.0000   0.0000   0.0000   0.3538
   7.600   1.6889   0.01554   0.00889  -0.1960  0.0014  0.5661  -3.0878   0.0000   0.0000   0.0000   0.3527
   7.700   1.6960   0.01567   0.00903  -0.1952  0.0014  0.5723  -3.1217   0.0000   0.0000   0.0000   0.3516
   7.800   1.7033   0.01580   0.00917  -0.1945  0.0013  0.5797  -3.1561   0.0000   0.0000   0.0000   0.3505
   7.900   1.7105   0.01593   0.00932  -0.1939  0.0013  0.5865  -3.1905   0.0000   0.0000   0.0000   0.3495
   8.000   1.7176   0.01607   0.00947  -0.1932  0.0013  0.5924  -3.2248   0.0000   0.0000   0.0000   0.3484
   8.100   1.7247   0.01622   0.00963  -0.1924  0.0013  0.5968  -3.2592   0.0000   0.0000   0.0000   0.3474
   8.300   1.7393   0.01652   0.00997  -0.1911  0.0013  0.6139  -3.3291   0.0000   0.0000   0.0000   0.3453
   8.400   1.7463   0.01667   0.01014  -0.1905  0.0013  0.6235  -3.3638   0.0000   0.0000   0.0000   0.3443
   8.500   1.7530   0.01684   0.01032  -0.1897  0.0013  0.6283  -3.3980   0.0000   0.0000   0.0000   0.3433
   8.600   1.7599   0.01700   0.01049  -0.1890  0.0013  0.6361  -3.4325   0.0000   0.0000   0.0000   0.3423
   8.700   1.7670   0.01717   0.01068  -0.1884  0.0013  0.6466  -3.4677   0.0000   0.0000   0.0000   0.3413
   8.800   1.7738   0.01735   0.01088  -0.1877  0.0013  0.6543  -3.5022   0.0000   0.0000   0.0000   0.3403
   8.900   1.7804   0.01753   0.01107  -0.1869  0.0013  0.6598  -3.5365   0.0000   0.0000   0.0000   0.3394
   9.000   1.7872   0.01772   0.01128  -0.1862  0.0013  0.6696  -3.5714   0.0000   0.0000   0.0000   0.3384
   9.100   1.7941   0.01791   0.01149  -0.1856  0.0013  0.6780  -3.6065   0.0000   0.0000   0.0000   0.3374
   9.200   1.8006   0.01811   0.01170  -0.1848  0.0013  0.6838  -3.6429   0.0000   0.0000   0.0000   0.3365
   9.300   1.8068   0.01832   0.01192  -0.1841  0.0013  0.6876  -3.6879   0.0000   0.0000   0.0000   0.3355
   9.400   1.8129   0.01854   0.01215  -0.1833  0.0013  0.6902  -3.7328   0.0000   0.0000   0.0000   0.3345
   9.500   1.8189   0.01876   0.01238  -0.1825  0.0012  0.6934  -3.7778   0.0000   0.0000   0.0000   0.3336
   9.600   1.8250   0.01899   0.01263  -0.1817  0.0012  0.6999  -3.8231   0.0000   0.0000   0.0000   0.3326
   9.700   1.8308   0.01923   0.01289  -0.1809  0.0012  0.7056  -3.8676   0.0000   0.0000   0.0000   0.3317
   9.800   1.8365   0.01948   0.01316  -0.1801  0.0012  0.7107  -3.9120   0.0000   0.0000   0.0000   0.3308
   9.900   1.8422   0.01974   0.01343  -0.1793  0.0012  0.7154  -3.9567   0.0000   0.0000   0.0000   0.3298
  10.000   1.8481   0.02000   0.01370  -0.1785  0.0012  0.7196  -4.0016   0.0000   0.0000   0.0000   0.3289
  10.100   1.8536   0.02028   0.01400  -0.1778  0.0012  0.7271  -4.0459   0.0000   0.0000   0.0000   0.3280
  10.200   1.8592   0.02057   0.01431  -0.1770  0.0012  0.7365  -4.0902   0.0000   0.0000   0.0000   0.3271
  10.300   1.8648   0.02086   0.01463  -0.1762  0.0012  0.7443  -4.1346   0.0000   0.0000   0.0000   0.3262
  10.400   1.8703   0.02115   0.01494  -0.1755  0.0012  0.7497  -4.1854   0.0000   0.0000   0.0000   0.3254
  10.500   1.8756   0.02148   0.01530  -0.1747  0.0012  0.7601  -4.2584   0.0000   0.0000   0.0000   0.3245
  10.600   1.8808   0.02181   0.01567  -0.1739  0.0012  0.7696  -4.3335   0.0000   0.0000   0.0000   0.3236
  10.700   1.8859   0.02215   0.01603  -0.1731  0.0012  0.7776  -4.4076   0.0000   0.0000   0.0000   0.3227
  10.800   1.8915   0.02249   0.01641  -0.1724  0.0012  0.7912  -4.4820   0.0000   0.0000   0.0000   0.3219
  10.900   1.8962   0.02286   0.01682  -0.1716  0.0012  0.8022  -4.5512   0.0000   0.0000   0.0000   0.3210
  11.000   1.9010   0.02325   0.01725  -0.1709  0.0012  0.8150  -4.6183   0.0000   0.0000   0.0000   0.3202
  11.100   1.9057   0.02365   0.01769  -0.1701  0.0012  0.8281  -4.6832   0.0000   0.0000   0.0000   0.3194
  11.200   1.9106   0.02406   0.01817  -0.1694  0.0012  0.8459  -4.7453   0.0000   0.0000   0.0000   0.3186
  11.300   1.9145   0.02454   0.01872  -0.1686  0.0012  0.8711  -4.7980   0.0000   0.0000   0.0000   0.3177
