xflr5 v6.59

 Calculated polar for: WORTMANN FX 63-137 AIRFOIL

 1 1 Reynolds number fixed          Mach number fixed         

 xtrf =   1.000 (top)        1.000 (bottom)
 Mach =   0.000     Re =     3.300 e 6     Ncrit =   9.000

  alpha     CL        CD       CDp       Cm    Top Xtr Bot Xtr   Cpmin    Chinge    XCp    
 ------- -------- --------- --------- -------- ------- ------- -------- --------- ---------
 -17.800  -0.2900   0.19383   0.19266  -0.0507  0.9710  0.0045  -1.4358   0.0000   0.0000   0.0000   0.0352
 -17.700  -0.2670   0.18973   0.18853  -0.0584  0.9656  0.0045  -1.4313   0.0000   0.0000   0.0000  -0.0124
 -17.600  -0.2429   0.18555   0.18428  -0.0665  0.9574  0.0045  -1.4266   0.0000   0.0000   0.0000  -0.0724
 -17.500  -0.2179   0.18132   0.17997  -0.0749  0.9456  0.0045  -1.4220   0.0000   0.0000   0.0000  -0.1487
 -17.400  -0.1987   0.17799   0.17642  -0.0811  0.9096  0.0045  -1.4196   0.0000   0.0000   0.0000  -0.2194
 -17.300  -0.1938   0.17661   0.17480  -0.0823  0.8613  0.0045  -1.4224   0.0000   0.0000   0.0000  -0.2371
 -17.200  -0.1906   0.17537   0.17348  -0.0829  0.8457  0.0045  -1.4264   0.0000   0.0000   0.0000  -0.2478
 -17.100  -0.1874   0.17410   0.17216  -0.0834  0.8354  0.0045  -1.4306   0.0000   0.0000   0.0000  -0.2590
 -17.000  -0.1843   0.17284   0.17085  -0.0840  0.8268  0.0045  -1.4350   0.0000   0.0000   0.0000  -0.2704
 -16.900  -0.1812   0.17156   0.16954  -0.0846  0.8183  0.0045  -1.4395   0.0000   0.0000   0.0000  -0.2822
 -16.800  -0.1781   0.17030   0.16823  -0.0851  0.8087  0.0045  -1.4443   0.0000   0.0000   0.0000  -0.2942
 -16.700  -0.1750   0.16902   0.16692  -0.0857  0.8015  0.0045  -1.4492   0.0000   0.0000   0.0000  -0.3066
 -16.600  -0.1719   0.16773   0.16561  -0.0863  0.7970  0.0045  -1.4544   0.0000   0.0000   0.0000  -0.3198
 -16.500  -0.1688   0.16643   0.16429  -0.0868  0.7922  0.0045  -1.4599   0.0000   0.0000   0.0000  -0.3332
 -16.400  -0.1657   0.16514   0.16298  -0.0874  0.7877  0.0045  -1.4655   0.0000   0.0000   0.0000  -0.3471
 -16.300  -0.1627   0.16385   0.16167  -0.0879  0.7828  0.0045  -1.4715   0.0000   0.0000   0.0000  -0.3614
 -16.200  -0.1596   0.16255   0.16035  -0.0885  0.7779  0.0045  -1.4777   0.0000   0.0000   0.0000  -0.3762
 -16.100  -0.1566   0.16124   0.15903  -0.0891  0.7752  0.0045  -1.4842   0.0000   0.0000   0.0000  -0.3917
 -16.000  -0.1536   0.15994   0.15771  -0.0896  0.7707  0.0045  -1.4911   0.0000   0.0000   0.0000  -0.4075
 -15.900  -0.1507   0.15866   0.15640  -0.0901  0.7624  0.0045  -1.4984   0.0000   0.0000   0.0000  -0.4231
 -15.800  -0.1480   0.15741   0.15510  -0.0906  0.7508  0.0045  -1.5060   0.0000   0.0000   0.0000  -0.4383
 -15.700  -0.1451   0.15612   0.15378  -0.0911  0.7451  0.0045  -1.5141   0.0000   0.0000   0.0000  -0.4550
 -15.600  -0.1423   0.15483   0.15247  -0.0917  0.7398  0.0045  -1.5228   0.0000   0.0000   0.0000  -0.4721
 -15.500  -0.1396   0.15354   0.15116  -0.0922  0.7343  0.0045  -1.5322   0.0000   0.0000   0.0000  -0.4894
 -15.400  -0.1369   0.15227   0.14985  -0.0926  0.7277  0.0045  -1.5424   0.0000   0.0000   0.0000  -0.5069
 -15.300  -0.1343   0.15098   0.14854  -0.0932  0.7215  0.0045  -1.5535   0.0000   0.0000   0.0000  -0.5252
 -15.200  -0.1316   0.14966   0.14722  -0.0937  0.7195  0.0045  -1.5662   0.0000   0.0000   0.0000  -0.5444
 -15.100  -0.1291   0.14835   0.14590  -0.0942  0.7173  0.0045  -1.5808   0.0000   0.0000   0.0000  -0.5638
 -15.000  -0.1267   0.14699   0.14453  -0.0947  0.7134  0.0045  -1.5990   0.0000   0.0000   0.0000  -0.5831
 -14.900  -0.1245   0.14556   0.14307  -0.0952  0.7057  0.0044  -1.6271   0.0000   0.0000   0.0000  -0.6009
 -11.200  -0.0634   0.08977   0.08689  -0.1176  0.5718  0.0117  -2.6004   0.0000   0.0000   0.0000  -1.7439
 -11.100  -0.0600   0.08897   0.08605  -0.1179  0.5627  0.0118  -2.5624   0.0000   0.0000   0.0000  -1.8625
 -11.000  -0.0563   0.08815   0.08521  -0.1183  0.5581  0.0119  -2.5231   0.0000   0.0000   0.0000  -2.0057
 -10.900  -0.0525   0.08733   0.08438  -0.1188  0.5536  0.0120  -2.4830   0.0000   0.0000   0.0000  -2.1733
 -10.800  -0.0487   0.08652   0.08355  -0.1192  0.5491  0.0122  -2.4422   0.0000   0.0000   0.0000  -2.3696
 -10.700  -0.0449   0.08572   0.08274  -0.1196  0.5445  0.0123  -2.4005   0.0000   0.0000   0.0000  -2.6024
 -10.600  -0.0409   0.08493   0.08193  -0.1200  0.5397  0.0125  -2.3580   0.0000   0.0000   0.0000  -2.8876
 -10.500  -0.0368   0.08414   0.08113  -0.1204  0.5348  0.0128  -2.3144   0.0000   0.0000   0.0000  -3.2471
 -10.400  -0.0325   0.08336   0.08034  -0.1209  0.5322  0.0131  -2.2692   0.0000   0.0000   0.0000  -3.7215
 -10.300  -0.0280   0.08259   0.07958  -0.1213  0.5309  0.0134  -2.2228   0.0000   0.0000   0.0000  -4.3626
 -10.200  -0.0235   0.08185   0.07883  -0.1217  0.5294  0.0139  -2.1753   0.0000   0.0000   0.0000  -5.2756
 -10.100  -0.0187   0.08113   0.07811  -0.1222  0.5273  0.0144  -2.1270   0.0000   0.0000   0.0000  -6.6970
  -9.000  -0.1407   0.00951   0.00407  -0.1961  0.5598  0.0064  -5.6904   0.0000   0.0000   0.0000  -1.1981
  -8.900  -0.1292   0.00945   0.00396  -0.1962  0.5485  0.0064  -5.5807   0.0000   0.0000   0.0000  -1.3264
  -8.800  -0.1175   0.00937   0.00384  -0.1964  0.5407  0.0064  -5.4699   0.0000   0.0000   0.0000  -1.4850
  -8.700  -0.1055   0.00929   0.00373  -0.1967  0.5342  0.0063  -5.3586   0.0000   0.0000   0.0000  -1.6839
  -8.600  -0.0933   0.00920   0.00363  -0.1969  0.5317  0.0063  -5.2472   0.0000   0.0000   0.0000  -1.9381
  -8.500  -0.0811   0.00912   0.00353  -0.1972  0.5301  0.0063  -5.1366   0.0000   0.0000   0.0000  -2.2685
  -8.400  -0.0690   0.00905   0.00343  -0.1974  0.5278  0.0063  -5.0272   0.0000   0.0000   0.0000  -2.7130
  -8.300  -0.0569   0.00898   0.00335  -0.1976  0.5257  0.0062  -4.9186   0.0000   0.0000   0.0000  -3.3459
  -8.200  -0.0457   0.00898   0.00329  -0.1977  0.5117  0.0062  -4.8152   0.0000   0.0000   0.0000  -4.2256
  -8.100  -0.0345   0.00899   0.00323  -0.1977  0.4968  0.0062  -4.7127   0.0000   0.0000   0.0000  -5.6721
  -8.000  -0.0228   0.00895   0.00316  -0.1979  0.4906  0.0061  -4.6083   0.0000   0.0000   0.0000  -8.7269
  -7.900  -0.0111   0.00893   0.00309  -0.1980  0.4844  0.0061  -4.5052   0.0000   0.0000   0.0000  -18.1409
  -7.800   0.0005   0.00891   0.00303  -0.1981  0.4780  0.0061  -4.4029   0.0000   0.0000   0.0000  386.4655
  -7.700   0.0123   0.00887   0.00297  -0.1983  0.4710  0.0061  -4.3008   0.0000   0.0000   0.0000  16.8332
  -7.600   0.0244   0.00883   0.00291  -0.1985  0.4668  0.0060  -4.2196   0.0000   0.0000   0.0000   8.6523
  -7.500   0.0364   0.00878   0.00285  -0.1987  0.4653  0.0060  -4.1430   0.0000   0.0000   0.0000   5.8685
  -7.400   0.0485   0.00873   0.00279  -0.1989  0.4633  0.0060  -4.0671   0.0000   0.0000   0.0000   4.4746
  -7.300   0.0605   0.00869   0.00273  -0.1991  0.4615  0.0060  -3.9915   0.0000   0.0000   0.0000   3.6350
  -6.700   0.1299   0.00869   0.00251  -0.1996  0.4161  0.0059  -3.5562   0.0000   0.0000   0.0000   1.8283
  -6.600   0.1416   0.00868   0.00248  -0.1997  0.4106  0.0059  -3.4841   0.0000   0.0000   0.0000   1.6979
  -6.500   0.1534   0.00866   0.00244  -0.1999  0.4048  0.0059  -3.4119   0.0000   0.0000   0.0000   1.5866
  -6.400   0.1654   0.00863   0.00241  -0.2000  0.4020  0.0059  -3.3396   0.0000   0.0000   0.0000   1.4903
  -6.300   0.1773   0.00860   0.00238  -0.2002  0.4008  0.0059  -3.2674   0.0000   0.0000   0.0000   1.4069
  -6.200   0.1893   0.00858   0.00234  -0.2003  0.3995  0.0059  -3.1956   0.0000   0.0000   0.0000   1.3341
  -6.100   0.2012   0.00856   0.00232  -0.2005  0.3974  0.0059  -3.1244   0.0000   0.0000   0.0000   1.2702
  -5.900   0.2240   0.00860   0.00230  -0.2006  0.3799  0.0058  -2.9865   0.0000   0.0000   0.0000   1.1661
  -5.800   0.2352   0.00864   0.00229  -0.2006  0.3682  0.0058  -2.9174   0.0000   0.0000   0.0000   1.1222
  -5.700   0.2469   0.00864   0.00228  -0.2007  0.3637  0.0058  -2.8461   0.0000   0.0000   0.0000   1.0811
  -5.600   0.2584   0.00865   0.00227  -0.2008  0.3594  0.0057  -2.7735   0.0000   0.0000   0.0000   1.0439
  -5.500   0.2699   0.00867   0.00227  -0.2008  0.3550  0.0057  -2.6969   0.0000   0.0000   0.0000   1.0101
  -5.300   0.2919   0.00878   0.00242  -0.2008  0.3454  0.0057  -2.4801   0.0000   0.0000   0.0000   0.9520
  -5.200   0.3037   0.00877   0.00240  -0.2009  0.3409  0.0057  -2.4155   0.0000   0.0000   0.0000   0.9248
  -5.100   0.3156   0.00875   0.00238  -0.2010  0.3388  0.0056  -2.3527   0.0000   0.0000   0.0000   0.8995
  -5.000   0.3276   0.00873   0.00236  -0.2012  0.3380  0.0056  -2.2917   0.0000   0.0000   0.0000   0.8760
  -4.900   0.3395   0.00871   0.00233  -0.2014  0.3370  0.0056  -2.2324   0.0000   0.0000   0.0000   0.8542
  -4.800   0.3515   0.00869   0.00230  -0.2015  0.3358  0.0056  -2.1746   0.0000   0.0000   0.0000   0.8338
  -4.700   0.3634   0.00867   0.00228  -0.2017  0.3341  0.0055  -2.1183   0.0000   0.0000   0.0000   0.8148
  -4.600   0.3755   0.00864   0.00225  -0.2018  0.3336  0.0055  -2.0632   0.0000   0.0000   0.0000   0.7969
  -4.500   0.3860   0.00874   0.00227  -0.2017  0.3143  0.0055  -2.0132   0.0000   0.0000   0.0000   0.7815
  -4.400   0.3975   0.00876   0.00225  -0.2018  0.3054  0.0055  -1.9633   0.0000   0.0000   0.0000   0.7661
  -4.300   0.4092   0.00877   0.00222  -0.2019  0.3012  0.0055  -1.9130   0.0000   0.0000   0.0000   0.7514
  -4.200   0.4209   0.00877   0.00220  -0.2020  0.2971  0.0055  -1.8645   0.0000   0.0000   0.0000   0.7375
  -4.100   0.4325   0.00878   0.00218  -0.2021  0.2930  0.0055  -1.8178   0.0000   0.0000   0.0000   0.7244
  -4.000   0.4443   0.00879   0.00216  -0.2022  0.2887  0.0055  -1.7732   0.0000   0.0000   0.0000   0.7119
  -3.900   0.4563   0.00877   0.00211  -0.2024  0.2839  0.0055  -1.7441   0.0000   0.0000   0.0000   0.6999
  -3.800   0.4686   0.00873   0.00206  -0.2026  0.2799  0.0056  -1.7361   0.0000   0.0000   0.0000   0.6883
  -3.700   0.4818   0.00863   0.00200  -0.2030  0.2784  0.0136  -1.7913   0.0000   0.0000   0.0000   0.6770
  -3.600   0.4936   0.00863   0.00200  -0.2032  0.2776  0.0142  -1.7237   0.0000   0.0000   0.0000   0.6669
  -3.500   0.5053   0.00863   0.00200  -0.2033  0.2768  0.0147  -1.6547   0.0000   0.0000   0.0000   0.6573
  -3.400   0.5169   0.00864   0.00201  -0.2034  0.2757  0.0150  -1.5834   0.0000   0.0000   0.0000   0.6481
  -3.300   0.5285   0.00865   0.00203  -0.2034  0.2743  0.0154  -1.5096   0.0000   0.0000   0.0000   0.6394
  -3.200   0.5400   0.00867   0.00205  -0.2035  0.2739  0.0157  -1.4338   0.0000   0.0000   0.0000   0.6310
  -3.100   0.5501   0.00880   0.00213  -0.2033  0.2563  0.0159  -1.3636   0.0000   0.0000   0.0000   0.6235
  -3.000   0.5611   0.00886   0.00217  -0.2033  0.2481  0.0162  -1.2936   0.0000   0.0000   0.0000   0.6160
  -2.900   0.5724   0.00889   0.00219  -0.2034  0.2450  0.0164  -1.2262   0.0000   0.0000   0.0000   0.6086
  -2.800   0.5838   0.00892   0.00221  -0.2034  0.2420  0.0165  -1.1629   0.0000   0.0000   0.0000   0.6016
  -2.700   0.5952   0.00895   0.00223  -0.2035  0.2390  0.0166  -1.1037   0.0000   0.0000   0.0000   0.5948
  -2.600   0.6066   0.00897   0.00224  -0.2035  0.2359  0.0167  -1.0491   0.0000   0.0000   0.0000   0.5882
  -2.500   0.6183   0.00899   0.00223  -0.2036  0.2328  0.0168  -1.0012   0.0000   0.0000   0.0000   0.5818
  -2.400   0.6301   0.00898   0.00220  -0.2038  0.2295  0.0167  -0.9672   0.0000   0.0000   0.0000   0.5756
  -2.300   0.6421   0.00899   0.00213  -0.2039  0.2186  0.0162  -0.9649   0.0000   0.0000   0.0000   0.5696
  -2.200   0.6518   0.00917   0.00222  -0.2036  0.1948  0.0163  -0.9144   0.0000   0.0000   0.0000   0.5643
  -2.100   0.6630   0.00922   0.00225  -0.2037  0.1897  0.0165  -0.9232   0.0000   0.0000   0.0000   0.5588
  -2.000   0.6743   0.00925   0.00227  -0.2037  0.1866  0.0166  -0.9318   0.0000   0.0000   0.0000   0.5535
  -1.900   0.6857   0.00928   0.00228  -0.2037  0.1842  0.0167  -0.9405   0.0000   0.0000   0.0000   0.5484
  -1.800   0.6971   0.00931   0.00229  -0.2038  0.1818  0.0167  -0.9492   0.0000   0.0000   0.0000   0.5434
  -1.700   0.7086   0.00933   0.00230  -0.2039  0.1794  0.0168  -0.9579   0.0000   0.0000   0.0000   0.5386
  -1.600   0.7201   0.00935   0.00231  -0.2040  0.1767  0.0169  -0.9668   0.0000   0.0000   0.0000   0.5339
  -1.500   0.7317   0.00936   0.00232  -0.2040  0.1740  0.0170  -0.9772   0.0000   0.0000   0.0000   0.5294
  -1.400   0.7433   0.00938   0.00232  -0.2041  0.1717  0.0170  -0.9876   0.0000   0.0000   0.0000   0.5250
  -1.300   0.7549   0.00939   0.00233  -0.2042  0.1703  0.0171  -0.9980   0.0000   0.0000   0.0000   0.5207
  -1.200   0.7665   0.00940   0.00234  -0.2043  0.1699  0.0171  -1.0084   0.0000   0.0000   0.0000   0.5165
  -1.100   0.7782   0.00941   0.00234  -0.2044  0.1695  0.0171  -1.0188   0.0000   0.0000   0.0000   0.5125
  -1.000   0.7898   0.00942   0.00235  -0.2045  0.1691  0.0172  -1.0293   0.0000   0.0000   0.0000   0.5086
  -0.800   0.8129   0.00945   0.00237  -0.2047  0.1682  0.0186  -1.0501   0.0000   0.0000   0.0000   0.5011
  -0.700   0.8245   0.00946   0.00237  -0.2047  0.1676  0.0187  -1.0605   0.0000   0.0000   0.0000   0.4975
  -0.600   0.8361   0.00948   0.00239  -0.2048  0.1666  0.0188  -1.0710   0.0000   0.0000   0.0000   0.4940
  -0.400   0.8570   0.00970   0.00251  -0.2046  0.1442  0.0190  -1.0916   0.0000   0.0000   0.0000   0.4874
  -0.300   0.8680   0.00976   0.00254  -0.2045  0.1406  0.0191  -1.1019   0.0000   0.0000   0.0000   0.4842
  -0.200   0.8792   0.00980   0.00257  -0.2045  0.1384  0.0191  -1.1121   0.0000   0.0000   0.0000   0.4811
  -0.100   0.8904   0.00984   0.00259  -0.2046  0.1365  0.0191  -1.1224   0.0000   0.0000   0.0000   0.4780
   0.000   0.9017   0.00988   0.00262  -0.2046  0.1346  0.0189  -1.1327   0.0000   0.0000   0.0000   0.4750
   0.100   0.9129   0.00992   0.00264  -0.2046  0.1326  0.0187  -1.1430   0.0000   0.0000   0.0000   0.4721
   0.200   0.9242   0.00995   0.00267  -0.2046  0.1303  0.0186  -1.1534   0.0000   0.0000   0.0000   0.4692
   0.300   0.9355   0.00998   0.00270  -0.2046  0.1281  0.0184  -1.1637   0.0000   0.0000   0.0000   0.4665
   0.400   0.9468   0.01002   0.00273  -0.2047  0.1260  0.0183  -1.1741   0.0000   0.0000   0.0000   0.4637
   0.500   0.9581   0.01005   0.00276  -0.2047  0.1244  0.0182  -1.1845   0.0000   0.0000   0.0000   0.4611
   0.600   0.9694   0.01008   0.00279  -0.2047  0.1239  0.0181  -1.1949   0.0000   0.0000   0.0000   0.4585
   0.700   0.9806   0.01010   0.00282  -0.2047  0.1236  0.0180  -1.2060   0.0000   0.0000   0.0000   0.4559
   0.800   0.9919   0.01013   0.00286  -0.2048  0.1233  0.0180  -1.2183   0.0000   0.0000   0.0000   0.4534
   0.900   1.0032   0.01017   0.00290  -0.2048  0.1230  0.0182  -1.2306   0.0000   0.0000   0.0000   0.4510
   1.000   1.0144   0.01020   0.00293  -0.2048  0.1227  0.0184  -1.2430   0.0000   0.0000   0.0000   0.4486
   1.100   1.0256   0.01023   0.00297  -0.2048  0.1222  0.0209  -1.2553   0.0000   0.0000   0.0000   0.4462
   1.200   1.0366   0.01027   0.00300  -0.2048  0.1217  0.0251  -1.2676   0.0000   0.0000   0.0000   0.4440
   1.300   1.0481   0.01030   0.00307  -0.2048  0.1210  0.0304  -1.2802   0.0000   0.0000   0.0000   0.4417
   1.400   1.0593   0.01033   0.00310  -0.2049  0.1198  0.0352  -1.2927   0.0000   0.0000   0.0000   0.4395
   1.500   1.0705   0.01037   0.00314  -0.2049  0.1190  0.0363  -1.3051   0.0000   0.0000   0.0000   0.4374
   1.600   1.0797   0.01056   0.00327  -0.2045  0.1030  0.0369  -1.3232   0.0000   0.0000   0.0000   0.4353
   1.700   1.0906   0.01062   0.00332  -0.2045  0.1018  0.0375  -1.3380   0.0000   0.0000   0.0000   0.4332
   1.800   1.1014   0.01068   0.00337  -0.2045  0.1006  0.0379  -1.3531   0.0000   0.0000   0.0000   0.4312
   1.900   1.1123   0.01074   0.00342  -0.2044  0.0993  0.0382  -1.3682   0.0000   0.0000   0.0000   0.4292
   2.000   1.1231   0.01080   0.00347  -0.2043  0.0981  0.0387  -1.3835   0.0000   0.0000   0.0000   0.4273
   2.100   1.1339   0.01086   0.00351  -0.2043  0.0968  0.0403  -1.3987   0.0000   0.0000   0.0000   0.4253
   2.200   1.1447   0.01091   0.00356  -0.2042  0.0955  0.0427  -1.4138   0.0000   0.0000   0.0000   0.4235
   2.300   1.1556   0.01096   0.00362  -0.2042  0.0942  0.0504  -1.4289   0.0000   0.0000   0.0000   0.4216
   2.400   1.1669   0.01100   0.00367  -0.2043  0.0926  0.0632  -1.4444   0.0000   0.0000   0.0000   0.4198
   2.500   1.1776   0.01107   0.00374  -0.2042  0.0872  0.0656  -1.4600   0.0000   0.0000   0.0000   0.4180
   2.600   1.1883   0.01113   0.00380  -0.2041  0.0841  0.0707  -1.4751   0.0000   0.0000   0.0000   0.4163
   2.700   1.1994   0.01117   0.00386  -0.2042  0.0832  0.0831  -1.4914   0.0000   0.0000   0.0000   0.4145
   2.800   1.2107   0.01121   0.00392  -0.2042  0.0816  0.1020  -1.5159   0.0000   0.0000   0.0000   0.4129
   3.000   1.2296   0.01153   0.00417  -0.2036  0.0642  0.1096  -1.5617   0.0000   0.0000   0.0000   0.4095
   3.100   1.2400   0.01162   0.00425  -0.2035  0.0619  0.1164  -1.5803   0.0000   0.0000   0.0000   0.4079
   3.200   1.2506   0.01169   0.00432  -0.2035  0.0597  0.1231  -1.5998   0.0000   0.0000   0.0000   0.4063
   3.300   1.2617   0.01174   0.00439  -0.2035  0.0575  0.1437  -1.6209   0.0000   0.0000   0.0000   0.4048
   3.400   1.2723   0.01181   0.00445  -0.2034  0.0554  0.1466  -1.6425   0.0000   0.0000   0.0000   0.4032
   3.500   1.2830   0.01187   0.00452  -0.2034  0.0535  0.1574  -1.6647   0.0000   0.0000   0.0000   0.4017
   3.600   1.2940   0.01191   0.00459  -0.2034  0.0521  0.1685  -1.6873   0.0000   0.0000   0.0000   0.4002
   3.700   1.3053   0.01195   0.00465  -0.2035  0.0516  0.1929  -1.7111   0.0000   0.0000   0.0000   0.3988
   3.800   1.3159   0.01201   0.00472  -0.2034  0.0513  0.1957  -1.7345   0.0000   0.0000   0.0000   0.3973
   3.900   1.3265   0.01206   0.00478  -0.2033  0.0521  0.1950  -1.7601   0.0000   0.0000   0.0000   0.3959
   4.000   1.3374   0.01211   0.00485  -0.2033  0.0517  0.2084  -1.7940   0.0000   0.0000   0.0000   0.3945
   4.100   1.3487   0.01214   0.00492  -0.2034  0.0515  0.2315  -1.8290   0.0000   0.0000   0.0000   0.3931
   4.200   1.3597   0.01218   0.00499  -0.2035  0.0514  0.2497  -1.8637   0.0000   0.0000   0.0000   0.3918
   4.300   1.3708   0.01223   0.00506  -0.2035  0.0511  0.2698  -1.8988   0.0000   0.0000   0.0000   0.3905
   4.400   1.3825   0.01225   0.00515  -0.2037  0.0508  0.3054  -1.9350   0.0000   0.0000   0.0000   0.3892
   4.500   1.3930   0.01232   0.00523  -0.2037  0.0501  0.3173  -1.9699   0.0000   0.0000   0.0000   0.3879
   4.600   1.4040   0.01237   0.00533  -0.2038  0.0488  0.3435  -2.0060   0.0000   0.0000   0.0000   0.3867
   4.700   1.4147   0.01245   0.00544  -0.2038  0.0467  0.3686  -2.0419   0.0000   0.0000   0.0000   0.3854
   4.800   1.4247   0.01257   0.00557  -0.2036  0.0443  0.3827  -2.0767   0.0000   0.0000   0.0000   0.3841
   4.900   1.4349   0.01266   0.00568  -0.2035  0.0420  0.3988  -2.1118   0.0000   0.0000   0.0000   0.3829
   5.000   1.4456   0.01274   0.00578  -0.2035  0.0401  0.4215  -2.1475   0.0000   0.0000   0.0000   0.3817
   5.100   1.4559   0.01281   0.00588  -0.2034  0.0387  0.4330  -2.1828   0.0000   0.0000   0.0000   0.3805
   5.200   1.4668   0.01287   0.00598  -0.2034  0.0381  0.4587  -2.2196   0.0000   0.0000   0.0000   0.3793
   5.300   1.4778   0.01292   0.00608  -0.2035  0.0379  0.4897  -2.2570   0.0000   0.0000   0.0000   0.3781
   5.400   1.4880   0.01300   0.00617  -0.2034  0.0377  0.5001  -2.2933   0.0000   0.0000   0.0000   0.3770
   5.500   1.4981   0.01308   0.00626  -0.2032  0.0374  0.5098  -2.3297   0.0000   0.0000   0.0000   0.3758
   5.600   1.5080   0.01317   0.00636  -0.2030  0.0371  0.5146  -2.3661   0.0000   0.0000   0.0000   0.3746
   5.700   1.5179   0.01325   0.00645  -0.2028  0.0367  0.5190  -2.4027   0.0000   0.0000   0.0000   0.3734
   5.800   1.5277   0.01335   0.00655  -0.2026  0.0361  0.5230  -2.4394   0.0000   0.0000   0.0000   0.3723
   5.900   1.5372   0.01346   0.00665  -0.2023  0.0352  0.5270  -2.4764   0.0000   0.0000   0.0000   0.3711
   6.000   1.5408   0.01398   0.00707  -0.2010  0.0171  0.5300  -2.4895   0.0000   0.0000   0.0000   0.3698
   6.100   1.5500   0.01410   0.00718  -0.2007  0.0164  0.5316  -2.5241   0.0000   0.0000   0.0000   0.3686
   6.200   1.5540   0.01458   0.00762  -0.1993  0.0045  0.5326  -2.5584   0.0000   0.0000   0.0000   0.3673
   6.300   1.5630   0.01470   0.00775  -0.1990  0.0043  0.5364  -2.5945   0.0000   0.0000   0.0000   0.3662
   6.400   1.5721   0.01482   0.00788  -0.1986  0.0041  0.5437  -2.6308   0.0000   0.0000   0.0000   0.3651
   6.500   1.5812   0.01494   0.00801  -0.1983  0.0039  0.5520  -2.6674   0.0000   0.0000   0.0000   0.3640
   6.600   1.5902   0.01507   0.00814  -0.1980  0.0037  0.5592  -2.7035   0.0000   0.0000   0.0000   0.3629
   6.700   1.5989   0.01519   0.00827  -0.1976  0.0036  0.5636  -2.7390   0.0000   0.0000   0.0000   0.3618
   6.800   1.6076   0.01532   0.00840  -0.1972  0.0034  0.5672  -2.7744   0.0000   0.0000   0.0000   0.3607
   6.900   1.6164   0.01544   0.00853  -0.1968  0.0032  0.5743  -2.8099   0.0000   0.0000   0.0000   0.3596
   7.000   1.6248   0.01556   0.00867  -0.1963  0.0031  0.5799  -2.8449   0.0000   0.0000   0.0000   0.3585
   7.100   1.6325   0.01569   0.00880  -0.1957  0.0029  0.5851  -2.8788   0.0000   0.0000   0.0000   0.3574
   7.200   1.6396   0.01581   0.00894  -0.1950  0.0027  0.5904  -2.9116   0.0000   0.0000   0.0000   0.3563
   7.300   1.6468   0.01595   0.00908  -0.1943  0.0025  0.5951  -2.9447   0.0000   0.0000   0.0000   0.3552
   7.600   1.6691   0.01635   0.00953  -0.1923  0.0020  0.6212  -3.0463   0.0000   0.0000   0.0000   0.3519
   7.700   1.6763   0.01650   0.00969  -0.1917  0.0018  0.6267  -3.0802   0.0000   0.0000   0.0000   0.3508
   7.800   1.6834   0.01665   0.00984  -0.1910  0.0016  0.6301  -3.1141   0.0000   0.0000   0.0000   0.3498
   7.900   1.6908   0.01680   0.01000  -0.1903  0.0014  0.6400  -3.1486   0.0000   0.0000   0.0000   0.3487
   8.000   1.6980   0.01696   0.01018  -0.1897  0.0014  0.6477  -3.1830   0.0000   0.0000   0.0000   0.3477
   8.100   1.7050   0.01712   0.01036  -0.1890  0.0014  0.6538  -3.2170   0.0000   0.0000   0.0000   0.3467
   8.200   1.7118   0.01729   0.01054  -0.1883  0.0013  0.6585  -3.2509   0.0000   0.0000   0.0000   0.3456
   8.300   1.7186   0.01747   0.01073  -0.1875  0.0014  0.6608  -3.2849   0.0000   0.0000   0.0000   0.3446
   8.400   1.7255   0.01764   0.01093  -0.1869  0.0013  0.6710  -3.3193   0.0000   0.0000   0.0000   0.3436
   8.500   1.7323   0.01783   0.01114  -0.1862  0.0013  0.6783  -3.3535   0.0000   0.0000   0.0000   0.3426
   8.600   1.7390   0.01802   0.01134  -0.1854  0.0013  0.6836  -3.3876   0.0000   0.0000   0.0000   0.3416
   8.700   1.7457   0.01821   0.01154  -0.1847  0.0013  0.6874  -3.4216   0.0000   0.0000   0.0000   0.3406
   8.800   1.7522   0.01841   0.01175  -0.1840  0.0013  0.6901  -3.4553   0.0000   0.0000   0.0000   0.3396
   8.900   1.7585   0.01862   0.01197  -0.1832  0.0013  0.6936  -3.4889   0.0000   0.0000   0.0000   0.3386
   9.000   1.7650   0.01884   0.01220  -0.1825  0.0013  0.7001  -3.5228   0.0000   0.0000   0.0000   0.3376
   9.100   1.7714   0.01905   0.01243  -0.1818  0.0013  0.7057  -3.5567   0.0000   0.0000   0.0000   0.3367
   9.200   1.7777   0.01928   0.01267  -0.1811  0.0013  0.7108  -3.5903   0.0000   0.0000   0.0000   0.3357
   9.300   1.7835   0.01952   0.01293  -0.1803  0.0013  0.7156  -3.6233   0.0000   0.0000   0.0000   0.3347
   9.400   1.7893   0.01976   0.01319  -0.1795  0.0013  0.7199  -3.6632   0.0000   0.0000   0.0000   0.3338
   9.500   1.7953   0.02001   0.01346  -0.1787  0.0013  0.7273  -3.7071   0.0000   0.0000   0.0000   0.3328
   9.600   1.8015   0.02027   0.01373  -0.1780  0.0013  0.7361  -3.7514   0.0000   0.0000   0.0000   0.3319
   9.700   1.8073   0.02054   0.01403  -0.1773  0.0013  0.7438  -3.7946   0.0000   0.0000   0.0000   0.3310
   9.800   1.8128   0.02082   0.01433  -0.1765  0.0013  0.7495  -3.8372   0.0000   0.0000   0.0000   0.3301
   9.900   1.8187   0.02110   0.01464  -0.1758  0.0013  0.7593  -3.8807   0.0000   0.0000   0.0000   0.3292
  10.000   1.8246   0.02139   0.01496  -0.1751  0.0013  0.7687  -3.9243   0.0000   0.0000   0.0000   0.3283
  10.100   1.8300   0.02171   0.01530  -0.1743  0.0013  0.7769  -3.9666   0.0000   0.0000   0.0000   0.3274
  10.200   1.8354   0.02203   0.01566  -0.1736  0.0013  0.7891  -4.0091   0.0000   0.0000   0.0000   0.3265
  10.300   1.8408   0.02236   0.01602  -0.1728  0.0013  0.8005  -4.0513   0.0000   0.0000   0.0000   0.3256
  10.400   1.8464   0.02269   0.01639  -0.1721  0.0013  0.8122  -4.0939   0.0000   0.0000   0.0000   0.3248
  10.500   1.8517   0.02305   0.01679  -0.1714  0.0013  0.8255  -4.1354   0.0000   0.0000   0.0000   0.3239
  10.600   1.8566   0.02343   0.01723  -0.1707  0.0013  0.8412  -4.1752   0.0000   0.0000   0.0000   0.3231
  10.700   1.8619   0.02381   0.01767  -0.1700  0.0013  0.8622  -4.2160   0.0000   0.0000   0.0000   0.3222
  10.800   1.8677   0.02416   0.01814  -0.1694  0.0013  0.9154  -4.2572   0.0000   0.0000   0.0000   0.3214
