xflr5 v6.59

 Calculated polar for: WORTMANN FX 63-137 AIRFOIL

 1 1 Reynolds number fixed          Mach number fixed         

 xtrf =   1.000 (top)        1.000 (bottom)
 Mach =   0.000     Re =     3.800 e 6     Ncrit =   9.000

  alpha     CL        CD       CDp       Cm    Top Xtr Bot Xtr   Cpmin    Chinge    XCp    
 ------- -------- --------- --------- -------- ------- ------- -------- --------- ---------
  -8.500  -0.0817   0.00910   0.00337  -0.1974  0.4671  0.0095  -5.1401   0.0000   0.0000   0.0000  -2.2529
  -8.300  -0.0578   0.00902   0.00328  -0.1978  0.4639  0.0064  -4.9212   0.0000   0.0000   0.0000  -3.2913
  -8.200  -0.0457   0.00895   0.00320  -0.1980  0.4622  0.0063  -4.8134   0.0000   0.0000   0.0000  -4.2343
  -8.100  -0.0336   0.00890   0.00313  -0.1982  0.4599  0.0063  -4.7066   0.0000   0.0000   0.0000  -5.8504
  -8.000  -0.0231   0.00896   0.00310  -0.1981  0.4347  0.0063  -4.6083   0.0000   0.0000   0.0000  -8.6062
  -7.900  -0.0113   0.00893   0.00303  -0.1983  0.4290  0.0062  -4.5044   0.0000   0.0000   0.0000  -17.8545
  -7.800   0.0004   0.00890   0.00297  -0.1984  0.4237  0.0062  -4.4017   0.0000   0.0000   0.0000  468.0439
  -7.700   0.0121   0.00889   0.00292  -0.1985  0.4183  0.0062  -4.3045   0.0000   0.0000   0.0000  17.1369
  -7.600   0.0239   0.00886   0.00286  -0.1987  0.4126  0.0061  -4.2286   0.0000   0.0000   0.0000   8.8285
  -7.500   0.0358   0.00883   0.00281  -0.1988  0.4065  0.0061  -4.1527   0.0000   0.0000   0.0000   5.9801
  -7.400   0.0478   0.00879   0.00276  -0.1990  0.4023  0.0061  -4.0768   0.0000   0.0000   0.0000   4.5406
  -7.300   0.0599   0.00875   0.00271  -0.1992  0.4012  0.0060  -4.0011   0.0000   0.0000   0.0000   3.6765
  -7.200   0.0719   0.00871   0.00266  -0.1994  0.3999  0.0060  -3.9258   0.0000   0.0000   0.0000   3.1034
  -7.100   0.0839   0.00867   0.00261  -0.1995  0.3982  0.0060  -3.8511   0.0000   0.0000   0.0000   2.6959
  -7.000   0.0960   0.00863   0.00256  -0.1997  0.3973  0.0059  -3.7766   0.0000   0.0000   0.0000   2.3894
  -6.900   0.1081   0.00859   0.00251  -0.1999  0.3972  0.0059  -3.7022   0.0000   0.0000   0.0000   2.1508
  -6.800   0.1191   0.00864   0.00250  -0.1999  0.3824  0.0059  -3.6320   0.0000   0.0000   0.0000   1.9735
  -6.700   0.1304   0.00867   0.00248  -0.1999  0.3690  0.0059  -3.5616   0.0000   0.0000   0.0000   1.8247
  -6.600   0.1421   0.00866   0.00245  -0.2001  0.3648  0.0058  -3.4895   0.0000   0.0000   0.0000   1.6946
  -6.500   0.1538   0.00865   0.00242  -0.2002  0.3606  0.0058  -3.4178   0.0000   0.0000   0.0000   1.5849
  -6.400   0.1655   0.00865   0.00240  -0.2003  0.3564  0.0058  -3.3464   0.0000   0.0000   0.0000   1.4909
  -6.300   0.1771   0.00865   0.00238  -0.2004  0.3520  0.0058  -3.2751   0.0000   0.0000   0.0000   1.4093
  -6.200   0.1889   0.00864   0.00235  -0.2005  0.3474  0.0058  -3.2037   0.0000   0.0000   0.0000   1.3373
  -6.100   0.2007   0.00863   0.00233  -0.2006  0.3423  0.0058  -3.1322   0.0000   0.0000   0.0000   1.2735
  -6.000   0.2126   0.00862   0.00231  -0.2007  0.3391  0.0058  -3.0607   0.0000   0.0000   0.0000   1.2164
  -5.900   0.2246   0.00859   0.00228  -0.2009  0.3384  0.0058  -2.9890   0.0000   0.0000   0.0000   1.1653
  -5.800   0.2365   0.00857   0.00226  -0.2010  0.3375  0.0057  -2.9174   0.0000   0.0000   0.0000   1.1194
  -5.700   0.2484   0.00856   0.00225  -0.2012  0.3365  0.0057  -2.8451   0.0000   0.0000   0.0000   1.0780
  -5.600   0.2602   0.00855   0.00223  -0.2013  0.3351  0.0057  -2.7715   0.0000   0.0000   0.0000   1.0404
  -5.500   0.2720   0.00854   0.00223  -0.2014  0.3343  0.0056  -2.6928   0.0000   0.0000   0.0000   1.0063
  -5.300   0.2928   0.00875   0.00242  -0.2011  0.3081  0.0056  -2.4769   0.0000   0.0000   0.0000   0.9510
  -5.200   0.3045   0.00875   0.00241  -0.2012  0.3040  0.0056  -2.4135   0.0000   0.0000   0.0000   0.9242
  -5.100   0.3161   0.00876   0.00240  -0.2013  0.3000  0.0055  -2.3523   0.0000   0.0000   0.0000   0.8994
  -5.000   0.3277   0.00877   0.00238  -0.2014  0.2960  0.0055  -2.2929   0.0000   0.0000   0.0000   0.8764
  -4.900   0.3394   0.00877   0.00236  -0.2015  0.2918  0.0055  -2.2350   0.0000   0.0000   0.0000   0.8549
  -4.800   0.3512   0.00877   0.00234  -0.2016  0.2875  0.0054  -2.1783   0.0000   0.0000   0.0000   0.8348
  -4.700   0.3630   0.00876   0.00232  -0.2018  0.2828  0.0054  -2.1229   0.0000   0.0000   0.0000   0.8158
  -4.600   0.3750   0.00874   0.00229  -0.2019  0.2792  0.0054  -2.0687   0.0000   0.0000   0.0000   0.7979
  -4.500   0.3870   0.00872   0.00226  -0.2021  0.2782  0.0054  -2.0158   0.0000   0.0000   0.0000   0.7811
  -4.400   0.3990   0.00870   0.00222  -0.2023  0.2774  0.0053  -1.9654   0.0000   0.0000   0.0000   0.7653
  -4.300   0.4110   0.00868   0.00220  -0.2024  0.2765  0.0053  -1.9153   0.0000   0.0000   0.0000   0.7504
  -4.200   0.4230   0.00866   0.00217  -0.2026  0.2754  0.0053  -1.8671   0.0000   0.0000   0.0000   0.7364
  -4.100   0.4350   0.00864   0.00214  -0.2027  0.2745  0.0053  -1.8210   0.0000   0.0000   0.0000   0.7231
  -4.000   0.4474   0.00859   0.00207  -0.2030  0.2741  0.0053  -1.7995   0.0000   0.0000   0.0000   0.7103
  -3.900   0.4580   0.00870   0.00209  -0.2029  0.2514  0.0053  -1.7825   0.0000   0.0000   0.0000   0.6993
  -3.800   0.4698   0.00870   0.00207  -0.2030  0.2473  0.0053  -1.7457   0.0000   0.0000   0.0000   0.6881
  -3.700   0.4815   0.00871   0.00206  -0.2031  0.2443  0.0054  -1.7083   0.0000   0.0000   0.0000   0.6774
  -3.600   0.4942   0.00865   0.00203  -0.2034  0.2413  0.0136  -1.7388   0.0000   0.0000   0.0000   0.6670
  -3.500   0.5057   0.00867   0.00204  -0.2035  0.2383  0.0142  -1.6748   0.0000   0.0000   0.0000   0.6574
  -3.400   0.5172   0.00869   0.00205  -0.2036  0.2353  0.0146  -1.6103   0.0000   0.0000   0.0000   0.6483
  -3.300   0.5287   0.00871   0.00205  -0.2036  0.2322  0.0149  -1.5445   0.0000   0.0000   0.0000   0.6396
  -3.200   0.5403   0.00873   0.00206  -0.2037  0.2291  0.0152  -1.4771   0.0000   0.0000   0.0000   0.6312
  -3.100   0.5518   0.00874   0.00208  -0.2038  0.2255  0.0155  -1.4079   0.0000   0.0000   0.0000   0.6232
  -3.000   0.5633   0.00876   0.00209  -0.2039  0.2228  0.0157  -1.3378   0.0000   0.0000   0.0000   0.6155
  -2.900   0.5749   0.00877   0.00211  -0.2039  0.2219  0.0159  -1.2687   0.0000   0.0000   0.0000   0.6081
  -2.800   0.5865   0.00878   0.00212  -0.2040  0.2214  0.0161  -1.2027   0.0000   0.0000   0.0000   0.6010
  -2.700   0.5981   0.00879   0.00213  -0.2041  0.2209  0.0163  -1.1411   0.0000   0.0000   0.0000   0.5942
  -2.600   0.6099   0.00879   0.00213  -0.2042  0.2203  0.0164  -1.0848   0.0000   0.0000   0.0000   0.5876
  -2.500   0.6217   0.00879   0.00212  -0.2044  0.2197  0.0164  -1.0357   0.0000   0.0000   0.0000   0.5812
  -2.400   0.6337   0.00877   0.00210  -0.2045  0.2188  0.0163  -1.0033   0.0000   0.0000   0.0000   0.5750
  -2.300   0.6426   0.00904   0.00217  -0.2041  0.1794  0.0158  -1.0018   0.0000   0.0000   0.0000   0.5697
  -2.200   0.6540   0.00907   0.00218  -0.2042  0.1740  0.0159  -0.9451   0.0000   0.0000   0.0000   0.5640
  -2.100   0.6656   0.00908   0.00219  -0.2042  0.1715  0.0161  -0.9250   0.0000   0.0000   0.0000   0.5585
  -2.000   0.6772   0.00909   0.00220  -0.2043  0.1702  0.0162  -0.9338   0.0000   0.0000   0.0000   0.5532
  -1.900   0.6888   0.00910   0.00221  -0.2044  0.1699  0.0163  -0.9425   0.0000   0.0000   0.0000   0.5480
  -1.800   0.7004   0.00911   0.00222  -0.2045  0.1695  0.0164  -0.9513   0.0000   0.0000   0.0000   0.5431
  -1.700   0.7121   0.00912   0.00223  -0.2046  0.1691  0.0165  -0.9601   0.0000   0.0000   0.0000   0.5382
  -1.600   0.7237   0.00913   0.00223  -0.2047  0.1687  0.0166  -0.9700   0.0000   0.0000   0.0000   0.5336
  -1.500   0.7353   0.00914   0.00224  -0.2048  0.1683  0.0167  -0.9803   0.0000   0.0000   0.0000   0.5290
  -1.400   0.7469   0.00916   0.00225  -0.2049  0.1677  0.0167  -0.9907   0.0000   0.0000   0.0000   0.5247
  -1.300   0.7585   0.00917   0.00226  -0.2050  0.1670  0.0168  -1.0011   0.0000   0.0000   0.0000   0.5204
  -1.200   0.7700   0.00919   0.00227  -0.2050  0.1660  0.0168  -1.0114   0.0000   0.0000   0.0000   0.5163
  -1.100   0.7817   0.00920   0.00228  -0.2051  0.1657  0.0169  -1.0218   0.0000   0.0000   0.0000   0.5123
  -1.000   0.7920   0.00932   0.00235  -0.2050  0.1507  0.0169  -1.0320   0.0000   0.0000   0.0000   0.5085
  -0.900   0.8031   0.00938   0.00238  -0.2050  0.1454  0.0169  -1.0423   0.0000   0.0000   0.0000   0.5048
  -0.800   0.8145   0.00941   0.00240  -0.2050  0.1438  0.0169  -1.0527   0.0000   0.0000   0.0000   0.5011
  -0.700   0.8258   0.00944   0.00242  -0.2050  0.1421  0.0170  -1.0630   0.0000   0.0000   0.0000   0.4975
  -0.600   0.8370   0.00949   0.00245  -0.2051  0.1392  0.0171  -1.0732   0.0000   0.0000   0.0000   0.4941
  -0.300   0.8708   0.00961   0.00250  -0.2051  0.1291  0.0187  -1.1041   0.0000   0.0000   0.0000   0.4842
  -0.200   0.8822   0.00963   0.00252  -0.2052  0.1271  0.0188  -1.1144   0.0000   0.0000   0.0000   0.4810
  -0.100   0.8936   0.00966   0.00254  -0.2052  0.1253  0.0188  -1.1248   0.0000   0.0000   0.0000   0.4780
   0.000   0.9050   0.00968   0.00257  -0.2053  0.1241  0.0188  -1.1352   0.0000   0.0000   0.0000   0.4750
   0.100   0.9164   0.00971   0.00259  -0.2053  0.1239  0.0187  -1.1456   0.0000   0.0000   0.0000   0.4721
   0.200   0.9278   0.00973   0.00261  -0.2054  0.1236  0.0185  -1.1560   0.0000   0.0000   0.0000   0.4692
   0.300   0.9391   0.00976   0.00264  -0.2054  0.1233  0.0183  -1.1664   0.0000   0.0000   0.0000   0.4664
   0.400   0.9505   0.00978   0.00267  -0.2054  0.1230  0.0181  -1.1769   0.0000   0.0000   0.0000   0.4637
   0.500   0.9618   0.00981   0.00269  -0.2055  0.1226  0.0179  -1.1873   0.0000   0.0000   0.0000   0.4610
   0.600   0.9731   0.00984   0.00272  -0.2055  0.1222  0.0178  -1.1977   0.0000   0.0000   0.0000   0.4585
   0.700   0.9844   0.00987   0.00276  -0.2055  0.1217  0.0177  -1.2094   0.0000   0.0000   0.0000   0.4559
   0.800   0.9956   0.00990   0.00279  -0.2055  0.1211  0.0176  -1.2218   0.0000   0.0000   0.0000   0.4534
   0.900   1.0069   0.00994   0.00283  -0.2055  0.1204  0.0178  -1.2341   0.0000   0.0000   0.0000   0.4510
   1.000   1.0181   0.00997   0.00287  -0.2056  0.1195  0.0179  -1.2465   0.0000   0.0000   0.0000   0.4486
   1.100   1.0278   0.01013   0.00298  -0.2053  0.1064  0.0183  -1.2584   0.0000   0.0000   0.0000   0.4463
   1.200   1.0385   0.01021   0.00303  -0.2052  0.1025  0.0225  -1.2705   0.0000   0.0000   0.0000   0.4440
   1.300   1.0495   0.01026   0.00308  -0.2052  0.1014  0.0255  -1.2829   0.0000   0.0000   0.0000   0.4418
   1.400   1.0608   0.01029   0.00314  -0.2052  0.1002  0.0337  -1.2980   0.0000   0.0000   0.0000   0.4396
   1.500   1.0718   0.01034   0.00318  -0.2052  0.0991  0.0352  -1.3131   0.0000   0.0000   0.0000   0.4375
   1.600   1.0827   0.01040   0.00323  -0.2052  0.0979  0.0362  -1.3283   0.0000   0.0000   0.0000   0.4354
   1.700   1.0937   0.01045   0.00327  -0.2052  0.0967  0.0369  -1.3433   0.0000   0.0000   0.0000   0.4333
   1.800   1.1046   0.01050   0.00331  -0.2051  0.0955  0.0374  -1.3583   0.0000   0.0000   0.0000   0.4313
   1.900   1.1156   0.01055   0.00335  -0.2051  0.0942  0.0378  -1.3734   0.0000   0.0000   0.0000   0.4293
   2.000   1.1266   0.01059   0.00339  -0.2051  0.0928  0.0382  -1.3885   0.0000   0.0000   0.0000   0.4273
   2.100   1.1376   0.01064   0.00343  -0.2051  0.0913  0.0386  -1.4036   0.0000   0.0000   0.0000   0.4254
   2.200   1.1486   0.01068   0.00347  -0.2050  0.0898  0.0407  -1.4188   0.0000   0.0000   0.0000   0.4235
   2.300   1.1596   0.01073   0.00353  -0.2050  0.0885  0.0479  -1.4339   0.0000   0.0000   0.0000   0.4217
   2.400   1.1704   0.01078   0.00359  -0.2050  0.0853  0.0501  -1.4492   0.0000   0.0000   0.0000   0.4199
   2.500   1.1817   0.01082   0.00365  -0.2050  0.0837  0.0632  -1.4644   0.0000   0.0000   0.0000   0.4181
   2.600   1.1925   0.01088   0.00371  -0.2050  0.0821  0.0658  -1.4794   0.0000   0.0000   0.0000   0.4164
   2.700   1.2023   0.01101   0.00382  -0.2048  0.0729  0.0715  -1.5028   0.0000   0.0000   0.0000   0.4146
   2.800   1.2115   0.01121   0.00396  -0.2044  0.0631  0.0813  -1.5222   0.0000   0.0000   0.0000   0.4129
   2.900   1.2224   0.01127   0.00404  -0.2044  0.0604  0.0998  -1.5415   0.0000   0.0000   0.0000   0.4113
   3.000   1.2330   0.01134   0.00410  -0.2043  0.0580  0.1012  -1.5600   0.0000   0.0000   0.0000   0.4096
   3.100   1.2436   0.01141   0.00416  -0.2043  0.0556  0.1029  -1.5809   0.0000   0.0000   0.0000   0.4080
   3.200   1.2543   0.01147   0.00422  -0.2042  0.0535  0.1061  -1.6029   0.0000   0.0000   0.0000   0.4064
   3.300   1.2651   0.01152   0.00427  -0.2041  0.0520  0.1131  -1.6252   0.0000   0.0000   0.0000   0.4048
   3.400   1.2759   0.01157   0.00434  -0.2041  0.0515  0.1195  -1.6483   0.0000   0.0000   0.0000   0.4033
   3.500   1.2871   0.01161   0.00440  -0.2041  0.0512  0.1348  -1.6720   0.0000   0.0000   0.0000   0.4018
   3.600   1.2979   0.01166   0.00446  -0.2041  0.0509  0.1445  -1.6955   0.0000   0.0000   0.0000   0.4003
   3.700   1.3085   0.01173   0.00452  -0.2040  0.0505  0.1474  -1.7190   0.0000   0.0000   0.0000   0.3988
   3.800   1.3191   0.01179   0.00459  -0.2040  0.0499  0.1556  -1.7427   0.0000   0.0000   0.0000   0.3974
   3.900   1.3299   0.01182   0.00464  -0.2039  0.0512  0.1544  -1.7673   0.0000   0.0000   0.0000   0.3959
   4.000   1.3409   0.01187   0.00470  -0.2039  0.0510  0.1661  -1.8016   0.0000   0.0000   0.0000   0.3945
   4.100   1.3523   0.01190   0.00477  -0.2041  0.0508  0.1931  -1.8367   0.0000   0.0000   0.0000   0.3932
   4.200   1.3628   0.01196   0.00484  -0.2040  0.0504  0.1964  -1.8708   0.0000   0.0000   0.0000   0.3918
   4.300   1.3736   0.01202   0.00492  -0.2039  0.0498  0.2124  -1.9057   0.0000   0.0000   0.0000   0.3905
   4.400   1.3850   0.01206   0.00501  -0.2041  0.0484  0.2473  -1.9418   0.0000   0.0000   0.0000   0.3892
   4.500   1.3949   0.01217   0.00511  -0.2039  0.0461  0.2515  -1.9760   0.0000   0.0000   0.0000   0.3879
   4.600   1.4052   0.01227   0.00523  -0.2038  0.0436  0.2728  -2.0109   0.0000   0.0000   0.0000   0.3866
   4.700   1.4163   0.01233   0.00533  -0.2039  0.0409  0.3058  -2.0467   0.0000   0.0000   0.0000   0.3854
   4.800   1.4267   0.01241   0.00542  -0.2038  0.0389  0.3197  -2.0817   0.0000   0.0000   0.0000   0.3841
   4.900   1.4383   0.01244   0.00551  -0.2040  0.0382  0.3547  -2.1188   0.0000   0.0000   0.0000   0.3829
   5.000   1.4489   0.01250   0.00559  -0.2040  0.0380  0.3696  -2.1550   0.0000   0.0000   0.0000   0.3817
   5.100   1.4596   0.01256   0.00568  -0.2040  0.0378  0.3866  -2.1915   0.0000   0.0000   0.0000   0.3805
   5.200   1.4703   0.01261   0.00577  -0.2040  0.0375  0.4057  -2.2283   0.0000   0.0000   0.0000   0.3793
   5.300   1.4816   0.01266   0.00587  -0.2041  0.0372  0.4422  -2.2662   0.0000   0.0000   0.0000   0.3782
   5.400   1.4929   0.01270   0.00598  -0.2042  0.0369  0.4788  -2.3044   0.0000   0.0000   0.0000   0.3771
   5.500   1.5034   0.01277   0.00608  -0.2042  0.0364  0.4967  -2.3417   0.0000   0.0000   0.0000   0.3759
   5.600   1.5132   0.01286   0.00617  -0.2040  0.0358  0.4985  -2.3783   0.0000   0.0000   0.0000   0.3748
   5.700   1.5229   0.01296   0.00626  -0.2037  0.0351  0.4998  -2.4149   0.0000   0.0000   0.0000   0.3736
   5.800   1.5294   0.01329   0.00651  -0.2029  0.0250  0.5030  -2.4500   0.0000   0.0000   0.0000   0.3723
   5.900   1.5379   0.01348   0.00668  -0.2025  0.0217  0.5104  -2.4742   0.0000   0.0000   0.0000   0.3711
   6.000   1.5418   0.01400   0.00717  -0.2011  0.0045  0.5171  -2.5000   0.0000   0.0000   0.0000   0.3698
   6.100   1.5510   0.01412   0.00730  -0.2008  0.0042  0.5212  -2.5367   0.0000   0.0000   0.0000   0.3687
   6.200   1.5603   0.01424   0.00742  -0.2005  0.0039  0.5247  -2.5732   0.0000   0.0000   0.0000   0.3675
   6.300   1.5694   0.01436   0.00754  -0.2002  0.0037  0.5275  -2.6091   0.0000   0.0000   0.0000   0.3664
   6.400   1.5785   0.01448   0.00766  -0.1998  0.0036  0.5296  -2.6448   0.0000   0.0000   0.0000   0.3653
   6.500   1.5875   0.01460   0.00778  -0.1995  0.0034  0.5318  -2.6806   0.0000   0.0000   0.0000   0.3642
   6.600   1.5966   0.01472   0.00790  -0.1991  0.0032  0.5384  -2.7166   0.0000   0.0000   0.0000   0.3631
   6.700   1.6059   0.01482   0.00803  -0.1988  0.0031  0.5496  -2.7530   0.0000   0.0000   0.0000   0.3620
   6.800   1.6151   0.01494   0.00815  -0.1985  0.0029  0.5577  -2.7891   0.0000   0.0000   0.0000   0.3609
   6.900   1.6239   0.01506   0.00828  -0.1981  0.0027  0.5620  -2.8249   0.0000   0.0000   0.0000   0.3599
   7.000   1.6326   0.01518   0.00840  -0.1977  0.0025  0.5638  -2.8604   0.0000   0.0000   0.0000   0.3588
   7.100   1.6411   0.01531   0.00853  -0.1973  0.0024  0.5649  -2.8959   0.0000   0.0000   0.0000   0.3577
   7.200   1.6493   0.01543   0.00865  -0.1968  0.0022  0.5675  -2.9310   0.0000   0.0000   0.0000   0.3567
   7.300   1.6569   0.01556   0.00879  -0.1961  0.0020  0.5736  -2.9653   0.0000   0.0000   0.0000   0.3556
   7.400   1.6640   0.01568   0.00893  -0.1954  0.0019  0.5799  -2.9987   0.0000   0.0000   0.0000   0.3544
   7.500   1.6713   0.01581   0.00907  -0.1947  0.0018  0.5861  -3.0327   0.0000   0.0000   0.0000   0.3534
   7.600   1.6786   0.01595   0.00921  -0.1940  0.0016  0.5919  -3.0669   0.0000   0.0000   0.0000   0.3523
   7.700   1.6857   0.01609   0.00936  -0.1933  0.0015  0.5966  -3.1007   0.0000   0.0000   0.0000   0.3512
   7.800   1.6931   0.01622   0.00951  -0.1927  0.0014  0.6070  -3.1351   0.0000   0.0000   0.0000   0.3501
   7.900   1.7006   0.01636   0.00967  -0.1921  0.0014  0.6176  -3.1699   0.0000   0.0000   0.0000   0.3491
   8.000   1.7078   0.01651   0.00983  -0.1914  0.0013  0.6247  -3.2043   0.0000   0.0000   0.0000   0.3481
   8.100   1.7148   0.01667   0.00999  -0.1907  0.0013  0.6285  -3.2384   0.0000   0.0000   0.0000   0.3470
   8.200   1.7217   0.01683   0.01016  -0.1900  0.0013  0.6331  -3.2723   0.0000   0.0000   0.0000   0.3460
   8.300   1.7287   0.01699   0.01035  -0.1893  0.0013  0.6400  -3.3068   0.0000   0.0000   0.0000   0.3450
   8.400   1.7358   0.01715   0.01054  -0.1886  0.0013  0.6488  -3.3415   0.0000   0.0000   0.0000   0.3440
   8.500   1.7427   0.01733   0.01072  -0.1879  0.0013  0.6557  -3.3759   0.0000   0.0000   0.0000   0.3429
   8.600   1.7494   0.01751   0.01091  -0.1872  0.0013  0.6606  -3.4099   0.0000   0.0000   0.0000   0.3419
   8.700   1.7562   0.01769   0.01111  -0.1865  0.0013  0.6713  -3.4444   0.0000   0.0000   0.0000   0.3410
   8.800   1.7631   0.01787   0.01132  -0.1858  0.0013  0.6790  -3.4790   0.0000   0.0000   0.0000   0.3400
   8.900   1.7698   0.01806   0.01152  -0.1851  0.0013  0.6841  -3.5135   0.0000   0.0000   0.0000   0.3390
   9.000   1.7763   0.01827   0.01173  -0.1844  0.0013  0.6878  -3.5475   0.0000   0.0000   0.0000   0.3380
   9.100   1.7825   0.01848   0.01195  -0.1836  0.0013  0.6904  -3.5812   0.0000   0.0000   0.0000   0.3370
   9.200   1.7888   0.01869   0.01218  -0.1829  0.0013  0.6940  -3.6150   0.0000   0.0000   0.0000   0.3361
   9.300   1.7951   0.01891   0.01241  -0.1821  0.0013  0.7006  -3.6541   0.0000   0.0000   0.0000   0.3351
   9.400   1.8014   0.01913   0.01265  -0.1814  0.0013  0.7062  -3.6990   0.0000   0.0000   0.0000   0.3342
   9.500   1.8072   0.01937   0.01290  -0.1806  0.0013  0.7112  -3.7430   0.0000   0.0000   0.0000   0.3332
   9.600   1.8130   0.01962   0.01317  -0.1798  0.0013  0.7159  -3.7867   0.0000   0.0000   0.0000   0.3323
   9.700   1.8187   0.01988   0.01344  -0.1790  0.0013  0.7201  -3.8306   0.0000   0.0000   0.0000   0.3313
   9.800   1.8247   0.02014   0.01372  -0.1783  0.0012  0.7281  -3.8753   0.0000   0.0000   0.0000   0.3304
   9.900   1.8305   0.02041   0.01402  -0.1775  0.0012  0.7371  -3.9192   0.0000   0.0000   0.0000   0.3295
  10.000   1.8359   0.02070   0.01433  -0.1767  0.0012  0.7446  -3.9624   0.0000   0.0000   0.0000   0.3286
  10.100   1.8414   0.02100   0.01465  -0.1759  0.0012  0.7500  -4.0055   0.0000   0.0000   0.0000   0.3277
  10.200   1.8472   0.02129   0.01497  -0.1752  0.0012  0.7605  -4.0498   0.0000   0.0000   0.0000   0.3268
  10.300   1.8526   0.02161   0.01532  -0.1745  0.0012  0.7699  -4.0927   0.0000   0.0000   0.0000   0.3259
  10.500   1.8632   0.02228   0.01606  -0.1730  0.0012  0.7912  -4.1770   0.0000   0.0000   0.0000   0.3242
  10.600   1.8686   0.02261   0.01643  -0.1722  0.0012  0.8022  -4.2192   0.0000   0.0000   0.0000   0.3233
  10.700   1.8737   0.02298   0.01684  -0.1715  0.0012  0.8148  -4.2772   0.0000   0.0000   0.0000   0.3225
  10.800   1.8784   0.02337   0.01727  -0.1707  0.0012  0.8279  -4.3437   0.0000   0.0000   0.0000   0.3216
  10.900   1.8836   0.02376   0.01772  -0.1700  0.0012  0.8453  -4.4100   0.0000   0.0000   0.0000   0.3208
  11.000   1.8888   0.02416   0.01819  -0.1694  0.0013  0.8701  -4.4738   0.0000   0.0000   0.0000   0.3200
