xflr5 v6.59

 Calculated polar for: WORTMANN FX 63-137 AIRFOIL

 1 1 Reynolds number fixed          Mach number fixed         

 xtrf =   1.000 (top)        1.000 (bottom)
 Mach =   0.000     Re =     3.700 e 6     Ncrit =   9.000

  alpha     CL        CD       CDp       Cm    Top Xtr Bot Xtr   Cpmin    Chinge    XCp    
 ------- -------- --------- --------- -------- ------- ------- -------- --------- ---------
 -18.100  -0.2202   0.18703   0.18515  -0.0773  0.8385  0.0044  -1.3902   0.0000   0.0000   0.0000  -0.1584
 -18.000  -0.2167   0.18578   0.18385  -0.0780  0.8294  0.0045  -1.3915   0.0000   0.0000   0.0000  -0.1675
 -17.900  -0.2133   0.18450   0.18257  -0.0786  0.8270  0.0045  -1.3931   0.0000   0.0000   0.0000  -0.1769
 -17.800  -0.2100   0.18325   0.18127  -0.0792  0.8137  0.0045  -1.3961   0.0000   0.0000   0.0000  -0.1862
 -17.700  -0.2068   0.18199   0.17996  -0.0798  0.8026  0.0045  -1.3993   0.0000   0.0000   0.0000  -0.1957
 -17.600  -0.2035   0.18072   0.17866  -0.0804  0.7978  0.0045  -1.4027   0.0000   0.0000   0.0000  -0.2057
 -17.500  -0.2002   0.17944   0.17736  -0.0811  0.7932  0.0045  -1.4062   0.0000   0.0000   0.0000  -0.2159
 -17.400  -0.1969   0.17816   0.17606  -0.0817  0.7888  0.0045  -1.4099   0.0000   0.0000   0.0000  -0.2264
 -17.300  -0.1937   0.17688   0.17476  -0.0823  0.7840  0.0045  -1.4137   0.0000   0.0000   0.0000  -0.2372
 -17.200  -0.1904   0.17559   0.17346  -0.0829  0.7794  0.0045  -1.4176   0.0000   0.0000   0.0000  -0.2484
 -17.100  -0.1872   0.17429   0.17215  -0.0835  0.7767  0.0045  -1.4217   0.0000   0.0000   0.0000  -0.2600
 -17.000  -0.1839   0.17299   0.17084  -0.0841  0.7745  0.0045  -1.4261   0.0000   0.0000   0.0000  -0.2720
 -16.900  -0.1807   0.17170   0.16953  -0.0847  0.7703  0.0045  -1.4305   0.0000   0.0000   0.0000  -0.2842
 -16.800  -0.1775   0.17041   0.16822  -0.0853  0.7657  0.0045  -1.4351   0.0000   0.0000   0.0000  -0.2967
 -16.700  -0.1745   0.16914   0.16692  -0.0858  0.7585  0.0045  -1.4400   0.0000   0.0000   0.0000  -0.3092
 -16.600  -0.1714   0.16786   0.16561  -0.0864  0.7515  0.0045  -1.4451   0.0000   0.0000   0.0000  -0.3223
 -16.500  -0.1682   0.16657   0.16429  -0.0870  0.7469  0.0045  -1.4504   0.0000   0.0000   0.0000  -0.3359
 -16.400  -0.1652   0.16527   0.16298  -0.0875  0.7425  0.0045  -1.4559   0.0000   0.0000   0.0000  -0.3499
 -16.300  -0.1621   0.16398   0.16167  -0.0881  0.7376  0.0045  -1.4617   0.0000   0.0000   0.0000  -0.3642
 -16.200  -0.1592   0.16271   0.16036  -0.0886  0.7314  0.0045  -1.4678   0.0000   0.0000   0.0000  -0.3786
 -16.100  -0.1562   0.16143   0.15905  -0.0891  0.7242  0.0045  -1.4741   0.0000   0.0000   0.0000  -0.3936
 -16.000  -0.1532   0.16012   0.15773  -0.0897  0.7202  0.0045  -1.4808   0.0000   0.0000   0.0000  -0.4097
 -15.900  -0.1502   0.15881   0.15642  -0.0903  0.7180  0.0045  -1.4879   0.0000   0.0000   0.0000  -0.4263
 -15.800  -0.1472   0.15751   0.15511  -0.0908  0.7136  0.0045  -1.4954   0.0000   0.0000   0.0000  -0.4431
 -15.700  -0.1445   0.15626   0.15381  -0.0913  0.7021  0.0045  -1.5033   0.0000   0.0000   0.0000  -0.4589
 -15.600  -0.1419   0.15501   0.15251  -0.0917  0.6894  0.0045  -1.5117   0.0000   0.0000   0.0000  -0.4749
 -15.500  -0.1392   0.15374   0.15120  -0.0922  0.6825  0.0045  -1.5207   0.0000   0.0000   0.0000  -0.4922
 -15.400  -0.1366   0.15248   0.14991  -0.0927  0.6753  0.0045  -1.5304   0.0000   0.0000   0.0000  -0.5094
 -15.300  -0.1340   0.15122   0.14861  -0.0932  0.6676  0.0045  -1.5409   0.0000   0.0000   0.0000  -0.5270
 -15.200  -0.1314   0.14993   0.14731  -0.0937  0.6611  0.0045  -1.5527   0.0000   0.0000   0.0000  -0.5457
 -15.100  -0.1288   0.14863   0.14600  -0.0942  0.6592  0.0045  -1.5660   0.0000   0.0000   0.0000  -0.5654
 -15.000  -0.1263   0.14729   0.14466  -0.0947  0.6573  0.0045  -1.5816   0.0000   0.0000   0.0000  -0.5855
 -14.900  -0.1238   0.14590   0.14326  -0.0953  0.6545  0.0044  -1.6016   0.0000   0.0000   0.0000  -0.6061
 -14.100  -0.1289   0.12669   0.12409  -0.1009  0.6544  0.0042  -2.8282   0.0000   0.0000   0.0000  -0.6167
 -14.000  -0.1257   0.12565   0.12302  -0.1014  0.6454  0.0042  -2.7987   0.0000   0.0000   0.0000  -0.6418
 -13.900  -0.1229   0.12470   0.12198  -0.1017  0.6245  0.0043  -2.7702   0.0000   0.0000   0.0000  -0.6641
 -13.800  -0.1197   0.12367   0.12092  -0.1021  0.6162  0.0043  -2.7409   0.0000   0.0000   0.0000  -0.6913
 -13.700  -0.1165   0.12265   0.11986  -0.1025  0.6088  0.0043  -2.7115   0.0000   0.0000   0.0000  -0.7200
 -13.600  -0.1132   0.12161   0.11880  -0.1030  0.6021  0.0043  -2.6817   0.0000   0.0000   0.0000  -0.7516
 -13.500  -0.1098   0.12056   0.11774  -0.1035  0.5979  0.0044  -2.6514   0.0000   0.0000   0.0000  -0.7866
 -13.400  -0.1064   0.11950   0.11667  -0.1040  0.5966  0.0044  -2.6206   0.0000   0.0000   0.0000  -0.8247
 -13.300  -0.1029   0.11844   0.11562  -0.1045  0.5953  0.0044  -2.5894   0.0000   0.0000   0.0000  -0.8653
 -13.200  -0.0994   0.11740   0.11458  -0.1050  0.5938  0.0045  -2.5576   0.0000   0.0000   0.0000  -0.9089
 -13.100  -0.0959   0.11638   0.11355  -0.1055  0.5919  0.0045  -2.5250   0.0000   0.0000   0.0000  -0.9556
 -13.000  -0.0923   0.11536   0.11253  -0.1060  0.5915  0.0045  -2.4915   0.0000   0.0000   0.0000  -1.0069
 -12.900  -0.0888   0.11438   0.11154  -0.1065  0.5881  0.0045  -2.4571   0.0000   0.0000   0.0000  -1.0609
 -12.800  -0.0859   0.11353   0.11062  -0.1067  0.5698  0.0045  -2.4233   0.0000   0.0000   0.0000  -1.1071
 -12.700  -0.0824   0.11260   0.10967  -0.1071  0.5622  0.0046  -2.3875   0.0000   0.0000   0.0000  -1.1675
 -12.600  -0.0789   0.11167   0.10872  -0.1076  0.5576  0.0046  -2.3514   0.0000   0.0000   0.0000  -1.2347
 -12.500  -0.0754   0.11073   0.10776  -0.1080  0.5531  0.0046  -2.3168   0.0000   0.0000   0.0000  -1.3077
 -12.400  -0.0720   0.10974   0.10675  -0.1084  0.5487  0.0046  -2.2862   0.0000   0.0000   0.0000  -1.3868
  -9.500  -0.0007   0.07486   0.07169  -0.1252  0.4598  0.0161  -2.0406   0.0000   0.0000   0.0000  -196.6645
  -9.000  -0.1388   0.00915   0.00383  -0.1970  0.5263  0.0097  -5.6811   0.0000   0.0000   0.0000  -1.2244
  -8.600  -0.0932   0.00908   0.00345  -0.1974  0.4835  0.0095  -5.2477   0.0000   0.0000   0.0000  -1.9458
  -8.400  -0.0704   0.00912   0.00340  -0.1974  0.4701  0.0064  -5.0324   0.0000   0.0000   0.0000  -2.6545
  -8.300  -0.0583   0.00906   0.00331  -0.1976  0.4667  0.0063  -4.9238   0.0000   0.0000   0.0000  -3.2603
  -8.200  -0.0461   0.00899   0.00323  -0.1979  0.4651  0.0063  -4.8159   0.0000   0.0000   0.0000  -4.1869
  -8.100  -0.0340   0.00893   0.00315  -0.1981  0.4630  0.0063  -4.7091   0.0000   0.0000   0.0000  -5.7670
  -8.000  -0.0219   0.00887   0.00307  -0.1983  0.4619  0.0062  -4.6028   0.0000   0.0000   0.0000  -9.1075
  -7.900  -0.0106   0.00888   0.00303  -0.1983  0.4487  0.0062  -4.5014   0.0000   0.0000   0.0000  -19.0565
  -7.800   0.0005   0.00890   0.00298  -0.1984  0.4327  0.0062  -4.4017   0.0000   0.0000   0.0000  422.4313
  -7.700   0.0123   0.00888   0.00293  -0.1985  0.4272  0.0061  -4.3027   0.0000   0.0000   0.0000  16.9467
  -7.600   0.0240   0.00886   0.00287  -0.1986  0.4218  0.0061  -4.2270   0.0000   0.0000   0.0000   8.7923
  -7.500   0.0357   0.00884   0.00282  -0.1988  0.4164  0.0061  -4.1518   0.0000   0.0000   0.0000   5.9948
  -7.400   0.0474   0.00882   0.00277  -0.1989  0.4106  0.0060  -4.0767   0.0000   0.0000   0.0000   4.5687
  -7.300   0.0593   0.00879   0.00273  -0.1991  0.4047  0.0060  -4.0016   0.0000   0.0000   0.0000   3.7033
  -7.200   0.0714   0.00875   0.00267  -0.1992  0.4019  0.0060  -3.9264   0.0000   0.0000   0.0000   3.1222
  -7.100   0.0834   0.00871   0.00263  -0.1994  0.4008  0.0059  -3.8516   0.0000   0.0000   0.0000   2.7083
  -7.000   0.0955   0.00867   0.00258  -0.1996  0.3994  0.0059  -3.7772   0.0000   0.0000   0.0000   2.3994
  -6.900   0.1076   0.00863   0.00253  -0.1998  0.3989  0.0059  -3.7029   0.0000   0.0000   0.0000   2.1589
  -6.800   0.1196   0.00860   0.00249  -0.1999  0.3974  0.0059  -3.6295   0.0000   0.0000   0.0000   1.9678
  -6.700   0.1316   0.00856   0.00245  -0.2001  0.3970  0.0059  -3.5562   0.0000   0.0000   0.0000   1.8110
  -6.600   0.1422   0.00864   0.00245  -0.2000  0.3766  0.0058  -3.4880   0.0000   0.0000   0.0000   1.6935
  -6.500   0.1538   0.00865   0.00243  -0.2001  0.3677  0.0058  -3.4168   0.0000   0.0000   0.0000   1.5851
  -6.400   0.1655   0.00865   0.00240  -0.2002  0.3634  0.0058  -3.3452   0.0000   0.0000   0.0000   1.4907
  -6.300   0.1771   0.00865   0.00238  -0.2003  0.3592  0.0058  -3.2740   0.0000   0.0000   0.0000   1.4091
  -6.200   0.1888   0.00865   0.00236  -0.2004  0.3549  0.0058  -3.2030   0.0000   0.0000   0.0000   1.3378
  -6.100   0.2004   0.00865   0.00234  -0.2005  0.3503  0.0058  -3.1321   0.0000   0.0000   0.0000   1.2745
  -6.000   0.2122   0.00864   0.00232  -0.2006  0.3456  0.0058  -3.0612   0.0000   0.0000   0.0000   1.2178
  -5.900   0.2240   0.00863   0.00230  -0.2008  0.3408  0.0058  -2.9902   0.0000   0.0000   0.0000   1.1669
  -5.800   0.2360   0.00861   0.00227  -0.2009  0.3388  0.0057  -2.9188   0.0000   0.0000   0.0000   1.1208
  -5.700   0.2479   0.00859   0.00226  -0.2010  0.3381  0.0057  -2.8466   0.0000   0.0000   0.0000   1.0792
  -5.600   0.2598   0.00858   0.00224  -0.2012  0.3371  0.0057  -2.7731   0.0000   0.0000   0.0000   1.0414
  -5.500   0.2716   0.00857   0.00223  -0.2013  0.3360  0.0056  -2.6954   0.0000   0.0000   0.0000   1.0072
  -5.400   0.2821   0.00866   0.00239  -0.2012  0.3345  0.0056  -2.5408   0.0000   0.0000   0.0000   0.9781
  -5.300   0.2940   0.00864   0.00238  -0.2013  0.3341  0.0056  -2.4740   0.0000   0.0000   0.0000   0.9487
  -5.200   0.3047   0.00872   0.00240  -0.2012  0.3169  0.0056  -2.4134   0.0000   0.0000   0.0000   0.9237
  -5.100   0.3160   0.00876   0.00239  -0.2013  0.3064  0.0056  -2.3529   0.0000   0.0000   0.0000   0.8994
  -5.000   0.3277   0.00876   0.00238  -0.2014  0.3023  0.0055  -2.2932   0.0000   0.0000   0.0000   0.8763
  -4.900   0.3394   0.00876   0.00236  -0.2015  0.2983  0.0055  -2.2352   0.0000   0.0000   0.0000   0.8549
  -4.800   0.3510   0.00877   0.00234  -0.2016  0.2942  0.0055  -2.1787   0.0000   0.0000   0.0000   0.8348
  -4.700   0.3627   0.00877   0.00232  -0.2017  0.2900  0.0054  -2.1235   0.0000   0.0000   0.0000   0.8160
  -4.600   0.3745   0.00877   0.00230  -0.2018  0.2857  0.0054  -2.0694   0.0000   0.0000   0.0000   0.7983
  -4.500   0.3864   0.00875   0.00227  -0.2020  0.2810  0.0054  -2.0167   0.0000   0.0000   0.0000   0.7815
  -4.400   0.3984   0.00873   0.00223  -0.2021  0.2785  0.0054  -1.9661   0.0000   0.0000   0.0000   0.7657
  -4.300   0.4104   0.00871   0.00221  -0.2023  0.2778  0.0054  -1.9158   0.0000   0.0000   0.0000   0.7508
  -4.200   0.4225   0.00869   0.00218  -0.2025  0.2770  0.0053  -1.8674   0.0000   0.0000   0.0000   0.7367
  -4.100   0.4345   0.00867   0.00215  -0.2026  0.2761  0.0053  -1.8210   0.0000   0.0000   0.0000   0.7234
  -4.000   0.4467   0.00864   0.00210  -0.2028  0.2747  0.0053  -1.7907   0.0000   0.0000   0.0000   0.7107
  -3.900   0.4591   0.00860   0.00203  -0.2030  0.2743  0.0053  -1.7781   0.0000   0.0000   0.0000   0.6986
  -3.800   0.4703   0.00865   0.00204  -0.2030  0.2625  0.0054  -1.7437   0.0000   0.0000   0.0000   0.6877
  -3.700   0.4813   0.00872   0.00206  -0.2030  0.2490  0.0055  -1.7092   0.0000   0.0000   0.0000   0.6775
  -3.600   0.4940   0.00865   0.00203  -0.2034  0.2459  0.0138  -1.7366   0.0000   0.0000   0.0000   0.6670
  -3.500   0.5055   0.00867   0.00204  -0.2034  0.2429  0.0143  -1.6721   0.0000   0.0000   0.0000   0.6574
  -3.400   0.5170   0.00870   0.00205  -0.2035  0.2399  0.0147  -1.6069   0.0000   0.0000   0.0000   0.6483
  -3.300   0.5284   0.00872   0.00206  -0.2036  0.2369  0.0150  -1.5403   0.0000   0.0000   0.0000   0.6397
  -3.200   0.5398   0.00875   0.00207  -0.2036  0.2339  0.0153  -1.4718   0.0000   0.0000   0.0000   0.6313
  -3.100   0.5513   0.00877   0.00209  -0.2037  0.2308  0.0156  -1.4014   0.0000   0.0000   0.0000   0.6233
  -3.000   0.5627   0.00880   0.00211  -0.2037  0.2272  0.0158  -1.3305   0.0000   0.0000   0.0000   0.6157
  -2.900   0.5742   0.00881   0.00213  -0.2038  0.2241  0.0160  -1.2614   0.0000   0.0000   0.0000   0.6083
  -2.800   0.5858   0.00882   0.00214  -0.2039  0.2221  0.0162  -1.1956   0.0000   0.0000   0.0000   0.6012
  -2.700   0.5974   0.00883   0.00215  -0.2040  0.2217  0.0163  -1.1344   0.0000   0.0000   0.0000   0.5943
  -2.600   0.6092   0.00883   0.00215  -0.2041  0.2212  0.0164  -1.0783   0.0000   0.0000   0.0000   0.5877
  -2.500   0.6210   0.00883   0.00214  -0.2042  0.2206  0.0165  -1.0293   0.0000   0.0000   0.0000   0.5813
  -2.400   0.6330   0.00881   0.00211  -0.2044  0.2200  0.0163  -0.9961   0.0000   0.0000   0.0000   0.5751
  -2.300   0.6421   0.00906   0.00217  -0.2040  0.1836  0.0158  -0.9966   0.0000   0.0000   0.0000   0.5697
  -2.200   0.6534   0.00910   0.00219  -0.2040  0.1778  0.0160  -0.9399   0.0000   0.0000   0.0000   0.5641
  -2.100   0.6649   0.00912   0.00220  -0.2041  0.1746  0.0162  -0.9246   0.0000   0.0000   0.0000   0.5586
  -2.000   0.6765   0.00913   0.00222  -0.2042  0.1721  0.0163  -0.9334   0.0000   0.0000   0.0000   0.5533
  -1.900   0.6881   0.00915   0.00222  -0.2043  0.1703  0.0164  -0.9421   0.0000   0.0000   0.0000   0.5481
  -1.800   0.6998   0.00915   0.00223  -0.2044  0.1700  0.0165  -0.9509   0.0000   0.0000   0.0000   0.5431
  -1.700   0.7114   0.00916   0.00224  -0.2045  0.1696  0.0166  -0.9597   0.0000   0.0000   0.0000   0.5383
  -1.600   0.7230   0.00917   0.00225  -0.2046  0.1693  0.0167  -0.9694   0.0000   0.0000   0.0000   0.5336
  -1.500   0.7346   0.00919   0.00226  -0.2047  0.1689  0.0167  -0.9798   0.0000   0.0000   0.0000   0.5291
  -1.400   0.7463   0.00920   0.00226  -0.2047  0.1684  0.0168  -0.9901   0.0000   0.0000   0.0000   0.5247
  -1.300   0.7579   0.00921   0.00227  -0.2048  0.1679  0.0168  -1.0005   0.0000   0.0000   0.0000   0.5205
  -1.200   0.7695   0.00922   0.00228  -0.2049  0.1672  0.0169  -1.0109   0.0000   0.0000   0.0000   0.5163
  -1.100   0.7810   0.00924   0.00229  -0.2050  0.1663  0.0169  -1.0213   0.0000   0.0000   0.0000   0.5123
  -1.000   0.7926   0.00925   0.00230  -0.2051  0.1657  0.0169  -1.0317   0.0000   0.0000   0.0000   0.5084
  -0.900   0.8035   0.00933   0.00235  -0.2050  0.1568  0.0170  -1.0420   0.0000   0.0000   0.0000   0.5047
  -0.800   0.8140   0.00943   0.00240  -0.2049  0.1458  0.0170  -1.0522   0.0000   0.0000   0.0000   0.5011
  -0.700   0.8254   0.00946   0.00242  -0.2050  0.1442  0.0170  -1.0626   0.0000   0.0000   0.0000   0.4975
  -0.400   0.8588   0.00961   0.00249  -0.2050  0.1341  0.0187  -1.0933   0.0000   0.0000   0.0000   0.4874
  -0.300   0.8702   0.00964   0.00251  -0.2050  0.1313  0.0188  -1.1036   0.0000   0.0000   0.0000   0.4842
  -0.200   0.8815   0.00967   0.00253  -0.2051  0.1292  0.0188  -1.1140   0.0000   0.0000   0.0000   0.4811
  -0.100   0.8929   0.00970   0.00255  -0.2051  0.1272  0.0189  -1.1243   0.0000   0.0000   0.0000   0.4780
   0.000   0.9043   0.00972   0.00258  -0.2051  0.1254  0.0188  -1.1347   0.0000   0.0000   0.0000   0.4750
   0.100   0.9157   0.00975   0.00260  -0.2052  0.1241  0.0187  -1.1451   0.0000   0.0000   0.0000   0.4721
   0.200   0.9271   0.00977   0.00263  -0.2052  0.1239  0.0185  -1.1555   0.0000   0.0000   0.0000   0.4692
   0.300   0.9384   0.00980   0.00265  -0.2053  0.1236  0.0183  -1.1659   0.0000   0.0000   0.0000   0.4664
   0.400   0.9498   0.00983   0.00268  -0.2053  0.1233  0.0181  -1.1763   0.0000   0.0000   0.0000   0.4637
   0.500   0.9611   0.00985   0.00271  -0.2053  0.1230  0.0180  -1.1868   0.0000   0.0000   0.0000   0.4611
   0.600   0.9724   0.00988   0.00274  -0.2053  0.1226  0.0179  -1.1972   0.0000   0.0000   0.0000   0.4585
   0.700   0.9837   0.00991   0.00277  -0.2054  0.1222  0.0178  -1.2088   0.0000   0.0000   0.0000   0.4559
   0.800   0.9950   0.00994   0.00280  -0.2054  0.1216  0.0177  -1.2211   0.0000   0.0000   0.0000   0.4534
   0.900   1.0062   0.00998   0.00284  -0.2054  0.1212  0.0179  -1.2335   0.0000   0.0000   0.0000   0.4510
   1.000   1.0174   0.01001   0.00288  -0.2054  0.1203  0.0180  -1.2458   0.0000   0.0000   0.0000   0.4486
   1.100   1.0286   0.01005   0.00292  -0.2054  0.1195  0.0186  -1.2582   0.0000   0.0000   0.0000   0.4463
   1.200   1.0378   0.01024   0.00303  -0.2050  0.1044  0.0236  -1.2698   0.0000   0.0000   0.0000   0.4440
   1.300   1.0490   0.01029   0.00309  -0.2051  0.1023  0.0257  -1.2823   0.0000   0.0000   0.0000   0.4418
   1.400   1.0602   0.01032   0.00315  -0.2051  0.1012  0.0339  -1.2970   0.0000   0.0000   0.0000   0.4396
   1.500   1.0712   0.01038   0.00319  -0.2051  0.1000  0.0354  -1.3121   0.0000   0.0000   0.0000   0.4375
   1.600   1.0821   0.01043   0.00324  -0.2051  0.0988  0.0364  -1.3273   0.0000   0.0000   0.0000   0.4354
   1.700   1.0931   0.01048   0.00328  -0.2050  0.0977  0.0370  -1.3424   0.0000   0.0000   0.0000   0.4333
   1.800   1.1040   0.01054   0.00332  -0.2050  0.0965  0.0375  -1.3575   0.0000   0.0000   0.0000   0.4313
   1.900   1.1149   0.01059   0.00336  -0.2050  0.0952  0.0379  -1.3725   0.0000   0.0000   0.0000   0.4293
   2.000   1.1259   0.01063   0.00340  -0.2049  0.0939  0.0382  -1.3876   0.0000   0.0000   0.0000   0.4273
   2.100   1.1369   0.01068   0.00345  -0.2049  0.0924  0.0389  -1.4027   0.0000   0.0000   0.0000   0.4254
   2.200   1.1478   0.01073   0.00349  -0.2049  0.0908  0.0410  -1.4178   0.0000   0.0000   0.0000   0.4235
   2.300   1.1588   0.01077   0.00355  -0.2049  0.0894  0.0484  -1.4330   0.0000   0.0000   0.0000   0.4217
   2.400   1.1697   0.01082   0.00360  -0.2048  0.0866  0.0506  -1.4483   0.0000   0.0000   0.0000   0.4199
   2.500   1.1809   0.01086   0.00367  -0.2049  0.0840  0.0634  -1.4636   0.0000   0.0000   0.0000   0.4181
   2.600   1.1917   0.01092   0.00372  -0.2048  0.0826  0.0663  -1.4786   0.0000   0.0000   0.0000   0.4163
   2.700   1.2024   0.01099   0.00379  -0.2048  0.0801  0.0743  -1.4992   0.0000   0.0000   0.0000   0.4146
   2.800   1.2111   0.01123   0.00397  -0.2043  0.0646  0.0831  -1.5219   0.0000   0.0000   0.0000   0.4129
   2.900   1.2218   0.01131   0.00405  -0.2043  0.0616  0.1001  -1.5402   0.0000   0.0000   0.0000   0.4112
   3.000   1.2323   0.01139   0.00412  -0.2042  0.0592  0.1020  -1.5592   0.0000   0.0000   0.0000   0.4096
   3.100   1.2429   0.01145   0.00417  -0.2041  0.0568  0.1035  -1.5801   0.0000   0.0000   0.0000   0.4080
   3.200   1.2535   0.01151   0.00423  -0.2040  0.0545  0.1095  -1.6019   0.0000   0.0000   0.0000   0.4064
   3.300   1.2643   0.01157   0.00430  -0.2040  0.0528  0.1161  -1.6241   0.0000   0.0000   0.0000   0.4048
   3.400   1.2752   0.01162   0.00436  -0.2040  0.0517  0.1225  -1.6468   0.0000   0.0000   0.0000   0.4033
   3.500   1.2865   0.01165   0.00442  -0.2040  0.0514  0.1437  -1.6706   0.0000   0.0000   0.0000   0.4018
   3.600   1.2971   0.01171   0.00448  -0.2040  0.0511  0.1460  -1.6939   0.0000   0.0000   0.0000   0.4003
   3.700   1.3077   0.01177   0.00454  -0.2039  0.0507  0.1532  -1.7173   0.0000   0.0000   0.0000   0.3988
   3.800   1.3185   0.01183   0.00461  -0.2039  0.0503  0.1616  -1.7411   0.0000   0.0000   0.0000   0.3973
   3.900   1.3292   0.01187   0.00466  -0.2038  0.0513  0.1603  -1.7659   0.0000   0.0000   0.0000   0.3959
   4.000   1.3403   0.01191   0.00473  -0.2038  0.0512  0.1751  -1.8002   0.0000   0.0000   0.0000   0.3945
   4.100   1.3514   0.01195   0.00480  -0.2039  0.0510  0.1941  -1.8349   0.0000   0.0000   0.0000   0.3932
   4.200   1.3620   0.01201   0.00487  -0.2038  0.0507  0.2043  -1.8692   0.0000   0.0000   0.0000   0.3918
   4.300   1.3730   0.01206   0.00494  -0.2039  0.0502  0.2207  -1.9043   0.0000   0.0000   0.0000   0.3905
   4.400   1.3842   0.01210   0.00503  -0.2039  0.0491  0.2480  -1.9401   0.0000   0.0000   0.0000   0.3892
   4.500   1.3945   0.01219   0.00513  -0.2038  0.0472  0.2630  -1.9749   0.0000   0.0000   0.0000   0.3879
   4.600   1.4057   0.01226   0.00525  -0.2040  0.0446  0.3019  -2.0111   0.0000   0.0000   0.0000   0.3866
   4.700   1.4156   0.01237   0.00536  -0.2038  0.0421  0.3091  -2.0453   0.0000   0.0000   0.0000   0.3853
   4.800   1.4263   0.01244   0.00545  -0.2038  0.0398  0.3321  -2.0808   0.0000   0.0000   0.0000   0.3841
   4.900   1.4377   0.01248   0.00555  -0.2039  0.0384  0.3659  -2.1174   0.0000   0.0000   0.0000   0.3829
   5.000   1.4481   0.01255   0.00563  -0.2038  0.0381  0.3763  -2.1531   0.0000   0.0000   0.0000   0.3817
   5.100   1.4590   0.01260   0.00572  -0.2039  0.0379  0.3966  -2.1900   0.0000   0.0000   0.0000   0.3805
   5.200   1.4701   0.01265   0.00581  -0.2040  0.0376  0.4249  -2.2273   0.0000   0.0000   0.0000   0.3794
   5.300   1.4811   0.01270   0.00591  -0.2040  0.0374  0.4543  -2.2648   0.0000   0.0000   0.0000   0.3782
   5.400   1.4922   0.01275   0.00602  -0.2041  0.0370  0.4879  -2.3027   0.0000   0.0000   0.0000   0.3771
   5.500   1.5024   0.01283   0.00611  -0.2040  0.0366  0.4981  -2.3394   0.0000   0.0000   0.0000   0.3759
   5.600   1.5122   0.01292   0.00620  -0.2038  0.0361  0.4995  -2.3759   0.0000   0.0000   0.0000   0.3747
   5.700   1.5218   0.01302   0.00629  -0.2035  0.0353  0.5022  -2.4127   0.0000   0.0000   0.0000   0.3736
   5.800   1.5289   0.01331   0.00653  -0.2028  0.0267  0.5075  -2.4502   0.0000   0.0000   0.0000   0.3723
   5.900   1.5376   0.01349   0.00668  -0.2024  0.0233  0.5142  -2.4789   0.0000   0.0000   0.0000   0.3711
   6.100   1.5500   0.01418   0.00734  -0.2006  0.0043  0.5239  -2.5341   0.0000   0.0000   0.0000   0.3686
   6.200   1.5591   0.01430   0.00746  -0.2003  0.0040  0.5269  -2.5705   0.0000   0.0000   0.0000   0.3675
   6.300   1.5682   0.01442   0.00758  -0.1999  0.0038  0.5291  -2.6067   0.0000   0.0000   0.0000   0.3663
   6.400   1.5773   0.01455   0.00770  -0.1996  0.0037  0.5309  -2.6423   0.0000   0.0000   0.0000   0.3652
   6.500   1.5862   0.01467   0.00782  -0.1992  0.0035  0.5331  -2.6780   0.0000   0.0000   0.0000   0.3641
   6.600   1.5954   0.01478   0.00795  -0.1989  0.0033  0.5435  -2.7142   0.0000   0.0000   0.0000   0.3630
   6.700   1.6047   0.01489   0.00807  -0.1986  0.0032  0.5533  -2.7505   0.0000   0.0000   0.0000   0.3620
   6.800   1.6137   0.01501   0.00820  -0.1983  0.0030  0.5600  -2.7865   0.0000   0.0000   0.0000   0.3609
   6.900   1.6225   0.01513   0.00832  -0.1979  0.0028  0.5634  -2.8221   0.0000   0.0000   0.0000   0.3598
   7.000   1.6311   0.01525   0.00845  -0.1974  0.0026  0.5647  -2.8575   0.0000   0.0000   0.0000   0.3587
   7.100   1.6396   0.01538   0.00857  -0.1970  0.0025  0.5666  -2.8928   0.0000   0.0000   0.0000   0.3577
   7.200   1.6477   0.01551   0.00871  -0.1965  0.0023  0.5721  -2.9276   0.0000   0.0000   0.0000   0.3566
   7.300   1.6550   0.01563   0.00884  -0.1958  0.0021  0.5784  -2.9612   0.0000   0.0000   0.0000   0.3555
   7.400   1.6622   0.01575   0.00898  -0.1951  0.0020  0.5844  -2.9949   0.0000   0.0000   0.0000   0.3544
   7.500   1.6695   0.01589   0.00913  -0.1944  0.0018  0.5903  -3.0288   0.0000   0.0000   0.0000   0.3533
   7.600   1.6767   0.01602   0.00927  -0.1937  0.0017  0.5953  -3.0628   0.0000   0.0000   0.0000   0.3522
   7.700   1.6839   0.01616   0.00942  -0.1930  0.0015  0.6027  -3.0968   0.0000   0.0000   0.0000   0.3511
   7.800   1.6914   0.01630   0.00958  -0.1924  0.0014  0.6144  -3.1316   0.0000   0.0000   0.0000   0.3501
   7.900   1.6988   0.01645   0.00974  -0.1918  0.0014  0.6228  -3.1661   0.0000   0.0000   0.0000   0.3490
   8.000   1.7059   0.01660   0.00990  -0.1911  0.0014  0.6276  -3.2003   0.0000   0.0000   0.0000   0.3480
   8.100   1.7128   0.01676   0.01006  -0.1903  0.0013  0.6319  -3.2343   0.0000   0.0000   0.0000   0.3469
   8.200   1.7199   0.01692   0.01024  -0.1897  0.0013  0.6406  -3.2685   0.0000   0.0000   0.0000   0.3459
   8.300   1.7269   0.01708   0.01043  -0.1890  0.0013  0.6456  -3.3029   0.0000   0.0000   0.0000   0.3449
   8.400   1.7339   0.01724   0.01061  -0.1883  0.0013  0.6531  -3.3375   0.0000   0.0000   0.0000   0.3439
   8.500   1.7407   0.01742   0.01080  -0.1876  0.0013  0.6588  -3.3716   0.0000   0.0000   0.0000   0.3429
   8.600   1.7474   0.01760   0.01099  -0.1869  0.0013  0.6668  -3.4057   0.0000   0.0000   0.0000   0.3419
   8.700   1.7543   0.01778   0.01120  -0.1862  0.0013  0.6760  -3.4403   0.0000   0.0000   0.0000   0.3409
   8.800   1.7611   0.01797   0.01140  -0.1855  0.0013  0.6821  -3.4747   0.0000   0.0000   0.0000   0.3399
   8.900   1.7678   0.01817   0.01160  -0.1848  0.0013  0.6863  -3.5090   0.0000   0.0000   0.0000   0.3389
   9.000   1.7741   0.01837   0.01182  -0.1840  0.0013  0.6893  -3.5428   0.0000   0.0000   0.0000   0.3379
   9.100   1.7803   0.01859   0.01204  -0.1833  0.0013  0.6915  -3.5764   0.0000   0.0000   0.0000   0.3370
   9.200   1.7867   0.01880   0.01227  -0.1825  0.0013  0.6978  -3.6104   0.0000   0.0000   0.0000   0.3360
   9.300   1.7930   0.01902   0.01250  -0.1818  0.0013  0.7038  -3.6480   0.0000   0.0000   0.0000   0.3350
   9.400   1.7992   0.01925   0.01275  -0.1811  0.0013  0.7090  -3.6925   0.0000   0.0000   0.0000   0.3341
   9.500   1.8049   0.01949   0.01301  -0.1802  0.0013  0.7139  -3.7362   0.0000   0.0000   0.0000   0.3331
   9.600   1.8107   0.01974   0.01327  -0.1794  0.0013  0.7183  -3.7799   0.0000   0.0000   0.0000   0.3322
   9.800   1.8227   0.02026   0.01383  -0.1780  0.0013  0.7333  -3.8686   0.0000   0.0000   0.0000   0.3304
   9.900   1.8282   0.02054   0.01414  -0.1772  0.0012  0.7415  -3.9119   0.0000   0.0000   0.0000   0.3294
  10.000   1.8336   0.02083   0.01445  -0.1764  0.0012  0.7479  -3.9549   0.0000   0.0000   0.0000   0.3285
  10.100   1.8393   0.02113   0.01477  -0.1756  0.0012  0.7558  -3.9985   0.0000   0.0000   0.0000   0.3276
  10.200   1.8451   0.02143   0.01510  -0.1749  0.0012  0.7658  -4.0423   0.0000   0.0000   0.0000   0.3267
  10.300   1.8503   0.02175   0.01545  -0.1741  0.0012  0.7745  -4.0846   0.0000   0.0000   0.0000   0.3259
  10.400   1.8556   0.02208   0.01581  -0.1734  0.0012  0.7853  -4.1270   0.0000   0.0000   0.0000   0.3250
  10.500   1.8611   0.02241   0.01618  -0.1727  0.0012  0.7976  -4.1699   0.0000   0.0000   0.0000   0.3241
  10.600   1.8663   0.02277   0.01658  -0.1719  0.0012  0.8083  -4.2109   0.0000   0.0000   0.0000   0.3233
  10.700   1.8713   0.02314   0.01700  -0.1712  0.0012  0.8221  -4.2538   0.0000   0.0000   0.0000   0.3224
  10.800   1.8762   0.02353   0.01743  -0.1704  0.0012  0.8365  -4.3204   0.0000   0.0000   0.0000   0.3216
  10.900   1.8814   0.02392   0.01788  -0.1697  0.0013  0.8559  -4.3859   0.0000   0.0000   0.0000   0.3208
  11.000   1.8868   0.02432   0.01838  -0.1691  0.0013  0.8931  -4.4487   0.0000   0.0000   0.0000   0.3200
