xflr5 v6.59

 Calculated polar for: WORTMANN FX 63-137 AIRFOIL

 1 1 Reynolds number fixed          Mach number fixed         

 xtrf =   1.000 (top)        1.000 (bottom)
 Mach =   0.000     Re =     2.800 e 6     Ncrit =   9.000

  alpha     CL        CD       CDp       Cm    Top Xtr Bot Xtr   Cpmin    Chinge    XCp    
 ------- -------- --------- --------- -------- ------- ------- -------- --------- ---------
 -15.600  -0.1421   0.15442   0.15234  -0.0919  0.8222  0.0045  -1.5372   0.0000   0.0000   0.0000  -0.4750
 -15.500  -0.1395   0.15318   0.15104  -0.0923  0.8100  0.0045  -1.5466   0.0000   0.0000   0.0000  -0.4909
 -15.400  -0.1370   0.15192   0.14974  -0.0927  0.8012  0.0045  -1.5569   0.0000   0.0000   0.0000  -0.5073
 -15.300  -0.1344   0.15064   0.14843  -0.0932  0.7949  0.0045  -1.5682   0.0000   0.0000   0.0000  -0.5250
 -15.200  -0.1320   0.14936   0.14713  -0.0937  0.7885  0.0045  -1.5810   0.0000   0.0000   0.0000  -0.5426
 -15.100  -0.1296   0.14808   0.14581  -0.0941  0.7815  0.0045  -1.5960   0.0000   0.0000   0.0000  -0.5600
 -15.000  -0.1272   0.14672   0.14443  -0.0946  0.7766  0.0045  -1.6154   0.0000   0.0000   0.0000  -0.5786
 -14.900  -0.1253   0.14515   0.14285  -0.0952  0.7735  0.0044  -1.6552   0.0000   0.0000   0.0000  -0.5955
 -13.300  -0.0998   0.11893   0.11642  -0.1043  0.7124  0.0045  -2.4816   0.0000   0.0000   0.0000  -0.8973
 -13.200  -0.0965   0.11795   0.11540  -0.1047  0.7023  0.0045  -2.4503   0.0000   0.0000   0.0000  -0.9395
 -13.100  -0.0933   0.11700   0.11440  -0.1051  0.6903  0.0045  -2.4187   0.0000   0.0000   0.0000  -0.9833
 -13.000  -0.0898   0.11601   0.11338  -0.1055  0.6849  0.0045  -2.3859   0.0000   0.0000   0.0000  -1.0347
 -12.900  -0.0864   0.11502   0.11238  -0.1060  0.6803  0.0046  -2.3527   0.0000   0.0000   0.0000  -1.0908
 -12.800  -0.0829   0.11405   0.11138  -0.1064  0.6756  0.0046  -2.3194   0.0000   0.0000   0.0000  -1.1508
 -12.700  -0.0795   0.11308   0.11039  -0.1068  0.6709  0.0046  -2.2863   0.0000   0.0000   0.0000  -1.2156
 -12.600  -0.0760   0.11210   0.10939  -0.1073  0.6669  0.0046  -2.2543   0.0000   0.0000   0.0000  -1.2871
 -12.100  -0.0780   0.10086   0.09818  -0.1121  0.6598  0.0100  -2.6615   0.0000   0.0000   0.0000  -1.3099
 -12.000  -0.0744   0.09980   0.09712  -0.1126  0.6589  0.0100  -2.6391   0.0000   0.0000   0.0000  -1.3920
 -11.900  -0.0706   0.09877   0.09609  -0.1131  0.6579  0.0100  -2.6135   0.0000   0.0000   0.0000  -1.4854
 -11.800  -0.0667   0.09778   0.09510  -0.1136  0.6566  0.0100  -2.5854   0.0000   0.0000   0.0000  -1.5919
 -11.700  -0.0628   0.09681   0.09412  -0.1141  0.6549  0.0100  -2.5554   0.0000   0.0000   0.0000  -1.7133
  -9.600  -0.2097   0.01007   0.00502  -0.1947  0.6733  0.0065  -6.3766   0.0000   0.0000   0.0000  -0.7182
  -9.500  -0.1978   0.00996   0.00488  -0.1949  0.6702  0.0065  -6.2517   0.0000   0.0000   0.0000  -0.7772
  -9.400  -0.1858   0.00985   0.00473  -0.1952  0.6668  0.0064  -6.1359   0.0000   0.0000   0.0000  -0.8441
  -9.300  -0.1739   0.00975   0.00458  -0.1954  0.6604  0.0064  -6.0221   0.0000   0.0000   0.0000  -0.9195
  -9.200  -0.1618   0.00963   0.00444  -0.1957  0.6577  0.0064  -5.9066   0.0000   0.0000   0.0000  -1.0082
  -9.100  -0.1499   0.00952   0.00431  -0.1960  0.6518  0.0063  -5.7929   0.0000   0.0000   0.0000  -1.1094
  -8.600  -0.0928   0.00923   0.00375  -0.1967  0.5951  0.0062  -5.2469   0.0000   0.0000   0.0000  -1.9476
  -8.500  -0.0806   0.00915   0.00365  -0.1969  0.5930  0.0062  -5.1365   0.0000   0.0000   0.0000  -2.2802
  -8.400  -0.0686   0.00908   0.00356  -0.1971  0.5899  0.0062  -5.0274   0.0000   0.0000   0.0000  -2.7270
  -8.300  -0.0565   0.00901   0.00347  -0.1974  0.5874  0.0062  -4.9189   0.0000   0.0000   0.0000  -3.3662
  -8.100  -0.0342   0.00900   0.00333  -0.1975  0.5591  0.0061  -4.7134   0.0000   0.0000   0.0000  -5.7220
  -8.000  -0.0224   0.00896   0.00325  -0.1976  0.5534  0.0061  -4.6090   0.0000   0.0000   0.0000  -8.8552
  -7.900  -0.0107   0.00893   0.00318  -0.1977  0.5477  0.0061  -4.5057   0.0000   0.0000   0.0000  -18.7581
  -7.800   0.0009   0.00890   0.00311  -0.1979  0.5417  0.0061  -4.4033   0.0000   0.0000   0.0000  215.8922
  -7.700   0.0128   0.00886   0.00305  -0.1980  0.5351  0.0060  -4.3011   0.0000   0.0000   0.0000  16.2386
  -7.600   0.0248   0.00881   0.00298  -0.1982  0.5320  0.0060  -4.2076   0.0000   0.0000   0.0000   8.4795
  -7.500   0.0369   0.00875   0.00291  -0.1984  0.5304  0.0060  -4.1311   0.0000   0.0000   0.0000   5.7860
  -7.400   0.0490   0.00870   0.00285  -0.1986  0.5283  0.0060  -4.0553   0.0000   0.0000   0.0000   4.4253
  -7.300   0.0610   0.00866   0.00279  -0.1988  0.5250  0.0060  -3.9802   0.0000   0.0000   0.0000   3.6067
  -7.200   0.0728   0.00863   0.00274  -0.1990  0.5197  0.0059  -3.9060   0.0000   0.0000   0.0000   3.0627
  -7.100   0.0833   0.00870   0.00272  -0.1989  0.4983  0.0059  -3.8365   0.0000   0.0000   0.0000   2.7055
  -7.000   0.0950   0.00869   0.00267  -0.1990  0.4920  0.0059  -3.7632   0.0000   0.0000   0.0000   2.4039
  -6.900   0.1069   0.00866   0.00261  -0.1992  0.4895  0.0060  -3.6889   0.0000   0.0000   0.0000   2.1643
  -6.800   0.1185   0.00865   0.00257  -0.1993  0.4840  0.0060  -3.6164   0.0000   0.0000   0.0000   1.9767
  -6.700   0.1301   0.00865   0.00254  -0.1994  0.4780  0.0060  -3.5445   0.0000   0.0000   0.0000   1.8231
  -6.600   0.1418   0.00864   0.00250  -0.1995  0.4713  0.0060  -3.4724   0.0000   0.0000   0.0000   1.6935
  -6.500   0.1537   0.00861   0.00246  -0.1996  0.4669  0.0060  -3.4000   0.0000   0.0000   0.0000   1.5820
  -6.400   0.1658   0.00858   0.00242  -0.1998  0.4654  0.0060  -3.3277   0.0000   0.0000   0.0000   1.4860
  -6.300   0.1777   0.00855   0.00238  -0.2000  0.4635  0.0060  -3.2559   0.0000   0.0000   0.0000   1.4031
  -6.200   0.1897   0.00852   0.00235  -0.2001  0.4608  0.0060  -3.1848   0.0000   0.0000   0.0000   1.3309
  -6.100   0.2015   0.00850   0.00232  -0.2003  0.4573  0.0059  -3.1141   0.0000   0.0000   0.0000   1.2676
  -6.000   0.2118   0.00861   0.00233  -0.2001  0.4339  0.0059  -3.0485   0.0000   0.0000   0.0000   1.2172
  -5.900   0.2234   0.00861   0.00231  -0.2002  0.4284  0.0059  -2.9781   0.0000   0.0000   0.0000   1.1669
  -5.800   0.2350   0.00861   0.00230  -0.2003  0.4231  0.0059  -2.9067   0.0000   0.0000   0.0000   1.1218
  -5.700   0.2464   0.00863   0.00228  -0.2004  0.4178  0.0059  -2.8337   0.0000   0.0000   0.0000   1.0811
  -5.600   0.2579   0.00865   0.00228  -0.2004  0.4123  0.0058  -2.7567   0.0000   0.0000   0.0000   1.0441
  -5.500   0.2690   0.00870   0.00234  -0.2004  0.4062  0.0058  -2.6458   0.0000   0.0000   0.0000   1.0111
  -5.400   0.2800   0.00874   0.00243  -0.2004  0.4022  0.0058  -2.5361   0.0000   0.0000   0.0000   0.9805
  -5.300   0.2919   0.00872   0.00241  -0.2005  0.4011  0.0058  -2.4689   0.0000   0.0000   0.0000   0.9509
  -5.200   0.3039   0.00870   0.00239  -0.2007  0.3997  0.0058  -2.4041   0.0000   0.0000   0.0000   0.9237
  -5.100   0.3158   0.00868   0.00237  -0.2008  0.3978  0.0058  -2.3414   0.0000   0.0000   0.0000   0.8985
  -5.000   0.3277   0.00866   0.00234  -0.2010  0.3960  0.0058  -2.2803   0.0000   0.0000   0.0000   0.8751
  -4.900   0.3389   0.00870   0.00234  -0.2010  0.3849  0.0058  -2.2227   0.0000   0.0000   0.0000   0.8542
  -4.800   0.3497   0.00877   0.00235  -0.2010  0.3689  0.0058  -2.1678   0.0000   0.0000   0.0000   0.8352
  -4.700   0.3614   0.00877   0.00233  -0.2011  0.3643  0.0057  -2.1117   0.0000   0.0000   0.0000   0.8163
  -4.600   0.3731   0.00878   0.00231  -0.2012  0.3599  0.0057  -2.0570   0.0000   0.0000   0.0000   0.7986
  -4.500   0.3847   0.00878   0.00229  -0.2013  0.3555  0.0057  -2.0038   0.0000   0.0000   0.0000   0.7821
  -4.400   0.3963   0.00879   0.00225  -0.2014  0.3506  0.0057  -1.9527   0.0000   0.0000   0.0000   0.7665
  -4.300   0.4081   0.00879   0.00223  -0.2015  0.3453  0.0057  -1.9016   0.0000   0.0000   0.0000   0.7517
  -4.200   0.4199   0.00878   0.00221  -0.2016  0.3407  0.0058  -1.8515   0.0000   0.0000   0.0000   0.7377
  -4.100   0.4319   0.00876   0.00218  -0.2018  0.3388  0.0058  -1.8027   0.0000   0.0000   0.0000   0.7243
  -4.000   0.4440   0.00874   0.00215  -0.2020  0.3379  0.0058  -1.7556   0.0000   0.0000   0.0000   0.7116
  -3.900   0.4560   0.00872   0.00212  -0.2021  0.3369  0.0059  -1.7105   0.0000   0.0000   0.0000   0.6996
  -3.800   0.4679   0.00870   0.00210  -0.2023  0.3356  0.0061  -1.6670   0.0000   0.0000   0.0000   0.6883
  -3.700   0.4819   0.00855   0.00196  -0.2029  0.3335  0.0144  -1.7650   0.0000   0.0000   0.0000   0.6766
  -3.600   0.4936   0.00855   0.00197  -0.2030  0.3329  0.0149  -1.6891   0.0000   0.0000   0.0000   0.6665
  -3.500   0.5035   0.00870   0.00204  -0.2027  0.3129  0.0153  -1.6154   0.0000   0.0000   0.0000   0.6577
  -3.400   0.5144   0.00876   0.00209  -0.2027  0.3055  0.0156  -1.5357   0.0000   0.0000   0.0000   0.6488
  -3.300   0.5255   0.00881   0.00213  -0.2027  0.3013  0.0160  -1.4563   0.0000   0.0000   0.0000   0.6401
  -3.200   0.5366   0.00885   0.00217  -0.2027  0.2973  0.0162  -1.3804   0.0000   0.0000   0.0000   0.6319
  -3.100   0.5477   0.00890   0.00221  -0.2027  0.2931  0.0165  -1.3085   0.0000   0.0000   0.0000   0.6240
  -3.000   0.5589   0.00894   0.00225  -0.2027  0.2888  0.0167  -1.2397   0.0000   0.0000   0.0000   0.6164
  -2.900   0.5702   0.00897   0.00229  -0.2028  0.2839  0.0168  -1.1718   0.0000   0.0000   0.0000   0.6090
  -2.300   0.6398   0.00908   0.00218  -0.2033  0.2490  0.0166  -0.9246   0.0000   0.0000   0.0000   0.5698
  -2.200   0.6502   0.00920   0.00223  -0.2032  0.2373  0.0167  -0.9098   0.0000   0.0000   0.0000   0.5644
  -2.100   0.6611   0.00927   0.00226  -0.2032  0.2267  0.0169  -0.9194   0.0000   0.0000   0.0000   0.5590
  -2.000   0.6726   0.00929   0.00227  -0.2032  0.2216  0.0170  -0.9284   0.0000   0.0000   0.0000   0.5536
  -1.900   0.6842   0.00930   0.00229  -0.2033  0.2202  0.0171  -0.9373   0.0000   0.0000   0.0000   0.5485
  -1.100   0.7747   0.00960   0.00240  -0.2036  0.1858  0.0187  -1.0141   0.0000   0.0000   0.0000   0.5127
  -1.000   0.7861   0.00964   0.00241  -0.2037  0.1834  0.0187  -1.0249   0.0000   0.0000   0.0000   0.5088
  -0.900   0.7975   0.00966   0.00242  -0.2037  0.1810  0.0188  -1.0355   0.0000   0.0000   0.0000   0.5050
  -0.800   0.8090   0.00969   0.00243  -0.2038  0.1783  0.0190  -1.0461   0.0000   0.0000   0.0000   0.5013
  -0.700   0.8205   0.00971   0.00244  -0.2039  0.1754  0.0192  -1.0567   0.0000   0.0000   0.0000   0.4977
  -0.600   0.8320   0.00973   0.00245  -0.2039  0.1728  0.0194  -1.0672   0.0000   0.0000   0.0000   0.4942
  -0.500   0.8435   0.00975   0.00246  -0.2040  0.1703  0.0195  -1.0777   0.0000   0.0000   0.0000   0.4907
  -0.400   0.8550   0.00977   0.00247  -0.2041  0.1696  0.0195  -1.0881   0.0000   0.0000   0.0000   0.4874
  -0.300   0.8664   0.00980   0.00249  -0.2041  0.1684  0.0194  -1.0986   0.0000   0.0000   0.0000   0.4842
  -0.200   0.8778   0.00982   0.00251  -0.2041  0.1670  0.0193  -1.1091   0.0000   0.0000   0.0000   0.4810
  -0.100   0.8891   0.00986   0.00254  -0.2042  0.1653  0.0191  -1.1195   0.0000   0.0000   0.0000   0.4779
   0.100   0.9100   0.01006   0.00267  -0.2039  0.1459  0.0189  -1.1402   0.0000   0.0000   0.0000   0.4721
   0.200   0.9211   0.01011   0.00271  -0.2039  0.1439  0.0188  -1.1506   0.0000   0.0000   0.0000   0.4692
   0.300   0.9322   0.01016   0.00274  -0.2039  0.1418  0.0186  -1.1609   0.0000   0.0000   0.0000   0.4664
   0.400   0.9433   0.01021   0.00278  -0.2039  0.1398  0.0185  -1.1712   0.0000   0.0000   0.0000   0.4637
   0.500   0.9543   0.01027   0.00282  -0.2039  0.1377  0.0185  -1.1815   0.0000   0.0000   0.0000   0.4611
   0.600   0.9653   0.01032   0.00286  -0.2038  0.1356  0.0184  -1.1918   0.0000   0.0000   0.0000   0.4584
   0.700   0.9764   0.01036   0.00290  -0.2038  0.1335  0.0184  -1.2020   0.0000   0.0000   0.0000   0.4559
   0.800   0.9875   0.01040   0.00294  -0.2038  0.1310  0.0184  -1.2137   0.0000   0.0000   0.0000   0.4534
   0.900   0.9987   0.01044   0.00298  -0.2038  0.1290  0.0189  -1.2261   0.0000   0.0000   0.0000   0.4510
   1.000   1.0098   0.01048   0.00302  -0.2038  0.1269  0.0193  -1.2385   0.0000   0.0000   0.0000   0.4486
   1.100   1.0204   0.01054   0.00303  -0.2037  0.1250  0.0244  -1.2506   0.0000   0.0000   0.0000   0.4462
   1.200   1.0321   0.01055   0.00313  -0.2038  0.1240  0.0268  -1.2633   0.0000   0.0000   0.0000   0.4439
   1.300   1.0436   0.01057   0.00315  -0.2039  0.1237  0.0352  -1.2759   0.0000   0.0000   0.0000   0.4417
   1.400   1.0548   0.01061   0.00319  -0.2039  0.1233  0.0364  -1.2883   0.0000   0.0000   0.0000   0.4395
   1.500   1.0659   0.01064   0.00323  -0.2039  0.1229  0.0372  -1.3007   0.0000   0.0000   0.0000   0.4373
   1.600   1.0771   0.01068   0.00326  -0.2039  0.1224  0.0377  -1.3131   0.0000   0.0000   0.0000   0.4352
   1.700   1.0882   0.01072   0.00330  -0.2039  0.1218  0.0381  -1.3268   0.0000   0.0000   0.0000   0.4331
   1.800   1.0992   0.01076   0.00334  -0.2039  0.1211  0.0384  -1.3419   0.0000   0.0000   0.0000   0.4311
   1.900   1.1102   0.01080   0.00338  -0.2039  0.1199  0.0395  -1.3573   0.0000   0.0000   0.0000   0.4291
   2.000   1.1212   0.01085   0.00343  -0.2039  0.1187  0.0411  -1.3727   0.0000   0.0000   0.0000   0.4272
   2.100   1.1302   0.01106   0.00357  -0.2035  0.1031  0.0431  -1.3921   0.0000   0.0000   0.0000   0.4252
   2.200   1.1409   0.01112   0.00362  -0.2035  0.1018  0.0464  -1.4070   0.0000   0.0000   0.0000   0.4233
   2.300   1.1521   0.01117   0.00371  -0.2035  0.1005  0.0640  -1.4224   0.0000   0.0000   0.0000   0.4215
   2.400   1.1628   0.01123   0.00376  -0.2034  0.0991  0.0662  -1.4377   0.0000   0.0000   0.0000   0.4197
   2.500   1.1734   0.01130   0.00382  -0.2034  0.0977  0.0729  -1.4531   0.0000   0.0000   0.0000   0.4179
   2.600   1.1846   0.01136   0.00389  -0.2034  0.0937  0.0995  -1.4694   0.0000   0.0000   0.0000   0.4162
   2.700   1.1950   0.01145   0.00397  -0.2033  0.0876  0.1073  -1.4852   0.0000   0.0000   0.0000   0.4145
   2.800   1.2059   0.01150   0.00404  -0.2033  0.0843  0.1169  -1.5037   0.0000   0.0000   0.0000   0.4128
   2.900   1.2169   0.01155   0.00410  -0.2033  0.0836  0.1242  -1.5282   0.0000   0.0000   0.0000   0.4111
   3.000   1.2282   0.01158   0.00416  -0.2034  0.0824  0.1441  -1.5527   0.0000   0.0000   0.0000   0.4095
   3.100   1.2388   0.01165   0.00423  -0.2033  0.0808  0.1494  -1.5767   0.0000   0.0000   0.0000   0.4079
   3.200   1.2481   0.01183   0.00439  -0.2030  0.0683  0.1616  -1.6040   0.0000   0.0000   0.0000   0.4063
   3.300   1.2589   0.01192   0.00448  -0.2030  0.0645  0.1883  -1.6241   0.0000   0.0000   0.0000   0.4047
   3.400   1.2692   0.01201   0.00457  -0.2029  0.0625  0.1949  -1.6432   0.0000   0.0000   0.0000   0.4032
   3.500   1.2797   0.01209   0.00464  -0.2028  0.0605  0.2078  -1.6626   0.0000   0.0000   0.0000   0.4017
   3.600   1.2908   0.01214   0.00473  -0.2029  0.0584  0.2264  -1.6833   0.0000   0.0000   0.0000   0.4002
   3.700   1.3019   0.01219   0.00480  -0.2030  0.0563  0.2486  -1.7051   0.0000   0.0000   0.0000   0.3988
   3.800   1.3126   0.01225   0.00488  -0.2029  0.0544  0.2620  -1.7271   0.0000   0.0000   0.0000   0.3973
   3.900   1.3232   0.01230   0.00494  -0.2028  0.0574  0.2580  -1.7535   0.0000   0.0000   0.0000   0.3959
   4.000   1.3346   0.01233   0.00501  -0.2030  0.0564  0.2831  -1.7880   0.0000   0.0000   0.0000   0.3945
   4.100   1.3458   0.01237   0.00509  -0.2031  0.0548  0.3080  -1.8225   0.0000   0.0000   0.0000   0.3932
   4.200   1.3569   0.01242   0.00518  -0.2031  0.0534  0.3291  -1.8569   0.0000   0.0000   0.0000   0.3918
   4.300   1.3685   0.01245   0.00527  -0.2033  0.0522  0.3648  -1.8923   0.0000   0.0000   0.0000   0.3906
   4.400   1.3790   0.01251   0.00534  -0.2032  0.0516  0.3732  -1.9265   0.0000   0.0000   0.0000   0.3892
   4.500   1.3900   0.01256   0.00543  -0.2033  0.0515  0.3931  -1.9619   0.0000   0.0000   0.0000   0.3879
   4.600   1.4007   0.01262   0.00552  -0.2033  0.0512  0.4082  -1.9971   0.0000   0.0000   0.0000   0.3867
   4.700   1.4115   0.01268   0.00561  -0.2033  0.0506  0.4285  -2.0329   0.0000   0.0000   0.0000   0.3854
   4.800   1.4217   0.01277   0.00570  -0.2031  0.0497  0.4348  -2.0679   0.0000   0.0000   0.0000   0.3841
   4.900   1.4319   0.01285   0.00581  -0.2030  0.0483  0.4495  -2.1034   0.0000   0.0000   0.0000   0.3829
   5.000   1.4419   0.01296   0.00593  -0.2029  0.0462  0.4620  -2.1388   0.0000   0.0000   0.0000   0.3816
   5.100   1.4520   0.01307   0.00607  -0.2027  0.0441  0.4837  -2.1742   0.0000   0.0000   0.0000   0.3804
   5.200   1.4619   0.01318   0.00619  -0.2026  0.0424  0.4988  -2.2093   0.0000   0.0000   0.0000   0.3792
   5.300   1.4720   0.01327   0.00631  -0.2024  0.0407  0.5153  -2.2447   0.0000   0.0000   0.0000   0.3780
   5.400   1.4820   0.01336   0.00641  -0.2023  0.0392  0.5252  -2.2800   0.0000   0.0000   0.0000   0.3768
   5.500   1.4917   0.01346   0.00651  -0.2020  0.0382  0.5279  -2.3152   0.0000   0.0000   0.0000   0.3756
   5.600   1.5015   0.01355   0.00660  -0.2018  0.0380  0.5300  -2.3511   0.0000   0.0000   0.0000   0.3744
   5.700   1.5112   0.01364   0.00669  -0.2016  0.0377  0.5316  -2.3871   0.0000   0.0000   0.0000   0.3732
   5.800   1.5208   0.01374   0.00679  -0.2013  0.0374  0.5333  -2.4232   0.0000   0.0000   0.0000   0.3720
   5.900   1.5304   0.01384   0.00689  -0.2011  0.0371  0.5386  -2.4597   0.0000   0.0000   0.0000   0.3709
   6.100   1.5441   0.01441   0.00738  -0.1996  0.0226  0.5497  -2.5260   0.0000   0.0000   0.0000   0.3684
   6.200   1.5523   0.01460   0.00755  -0.1991  0.0183  0.5546  -2.5485   0.0000   0.0000   0.0000   0.3673
   6.300   1.5613   0.01472   0.00768  -0.1987  0.0167  0.5600  -2.5816   0.0000   0.0000   0.0000   0.3661
   6.400   1.5704   0.01484   0.00779  -0.1984  0.0163  0.5641  -2.6168   0.0000   0.0000   0.0000   0.3650
   6.500   1.5732   0.01536   0.00828  -0.1969  0.0053  0.5684  -2.6499   0.0000   0.0000   0.0000   0.3637
   6.600   1.5821   0.01548   0.00843  -0.1965  0.0044  0.5795  -2.6849   0.0000   0.0000   0.0000   0.3626
   6.700   1.5907   0.01562   0.00858  -0.1961  0.0042  0.5874  -2.7207   0.0000   0.0000   0.0000   0.3615
   6.800   1.5987   0.01575   0.00872  -0.1955  0.0040  0.5926  -2.7554   0.0000   0.0000   0.0000   0.3604
   6.900   1.6058   0.01589   0.00886  -0.1948  0.0039  0.5963  -2.7888   0.0000   0.0000   0.0000   0.3592
   7.000   1.6130   0.01603   0.00901  -0.1941  0.0037  0.6030  -2.8219   0.0000   0.0000   0.0000   0.3581
   7.100   1.6206   0.01616   0.00916  -0.1935  0.0035  0.6127  -2.8556   0.0000   0.0000   0.0000   0.3569
   7.200   1.6280   0.01630   0.00931  -0.1928  0.0034  0.6205  -2.8891   0.0000   0.0000   0.0000   0.3558
   7.300   1.6353   0.01644   0.00946  -0.1922  0.0032  0.6261  -2.9221   0.0000   0.0000   0.0000   0.3547
   7.400   1.6424   0.01658   0.00961  -0.1915  0.0030  0.6293  -2.9551   0.0000   0.0000   0.0000   0.3536
   7.500   1.6499   0.01673   0.00977  -0.1909  0.0028  0.6382  -2.9887   0.0000   0.0000   0.0000   0.3525
   7.600   1.6575   0.01687   0.00993  -0.1903  0.0025  0.6460  -3.0224   0.0000   0.0000   0.0000   0.3515
   7.700   1.6648   0.01702   0.01009  -0.1896  0.0023  0.6523  -3.0560   0.0000   0.0000   0.0000   0.3504
   7.800   1.6720   0.01718   0.01026  -0.1889  0.0021  0.6572  -3.0894   0.0000   0.0000   0.0000   0.3494
   8.700   1.7331   0.01884   0.01204  -0.1826  0.0013  0.7020  -3.3929   0.0000   0.0000   0.0000   0.3402
   8.800   1.7396   0.01906   0.01228  -0.1819  0.0013  0.7074  -3.4266   0.0000   0.0000   0.0000   0.3392
   8.900   1.7460   0.01928   0.01251  -0.1812  0.0013  0.7125  -3.4602   0.0000   0.0000   0.0000   0.3382
   9.000   1.7521   0.01951   0.01276  -0.1804  0.0013  0.7171  -3.4934   0.0000   0.0000   0.0000   0.3372
   9.200   1.7639   0.02001   0.01329  -0.1789  0.0013  0.7301  -3.5593   0.0000   0.0000   0.0000   0.3353
   9.300   1.7700   0.02026   0.01357  -0.1782  0.0013  0.7384  -3.5928   0.0000   0.0000   0.0000   0.3343
   9.400   1.7760   0.02052   0.01385  -0.1774  0.0013  0.7455  -3.6260   0.0000   0.0000   0.0000   0.3334
   9.500   1.7817   0.02079   0.01414  -0.1767  0.0013  0.7517  -3.6650   0.0000   0.0000   0.0000   0.3324
   9.600   1.7876   0.02107   0.01445  -0.1759  0.0013  0.7617  -3.7079   0.0000   0.0000   0.0000   0.3315
   9.700   1.7935   0.02136   0.01476  -0.1752  0.0013  0.7708  -3.7508   0.0000   0.0000   0.0000   0.3306
  10.200   1.8220   0.02291   0.01649  -0.1717  0.0013  0.8276  -3.9626   0.0000   0.0000   0.0000   0.3262
  10.300   1.8275   0.02326   0.01688  -0.1711  0.0013  0.8440  -4.0043   0.0000   0.0000   0.0000   0.3253
  10.400   1.8330   0.02362   0.01730  -0.1704  0.0013  0.8659  -4.0456   0.0000   0.0000   0.0000   0.3245
