XFLR5 v6.02 Beta

 Calculated polar for: WORTMANN FX 63-137

 1 1 Reynolds number fixed          Mach number fixed         

 xtrf =   1.000 (top)        1.000 (bottom)
 Mach =   0.000     Re =    63.750 e 6     Ncrit =   9.000

  alpha     CL        CD       CDp       CM    Top Xtr Bot Xtr   Cpmin    Chinge    XCp    
 ------- -------- --------- --------- -------- ------- ------- -------- --------- ---------
 -22.500  -0.3797   0.22040   0.21798  -0.0558  0.2212  0.0013  -4.6590   0.0000   0.0539
 -22.000  -0.3614   0.21660   0.21417  -0.0594  0.2210  0.0013  -4.4718   0.0000   0.0359
 -21.500  -0.3439   0.21136   0.20891  -0.0630  0.2209  0.0013  -4.2966   0.0000   0.0163
 -21.000  -0.3268   0.20603   0.20352  -0.0664  0.1726  0.0013  -4.1285   0.0000  -0.0044
 -20.500  -0.3094   0.20058   0.19805  -0.0699  0.1696  0.0013  -3.9653   0.0000  -0.0281
 -20.000  -0.2920   0.19507   0.19252  -0.0733  0.1692  0.0013  -3.8096   0.0000  -0.0545
 -19.500  -0.2747   0.18947   0.18691  -0.0766  0.1696  0.0013  -3.6624   0.0000  -0.0839
 -19.000  -0.2576   0.18380   0.18123  -0.0799  0.1693  0.0013  -3.5252   0.0000  -0.1170
 -18.500  -0.2407   0.17802   0.17543  -0.0831  0.1691  0.0013  -3.4033   0.0000  -0.1543
 -18.000  -0.2243   0.17208   0.16948  -0.0862  0.1691  0.0014  -3.3038   0.0000  -0.1961
 -17.500  -0.3951   0.11986   0.11716  -0.1055  0.1946  0.0025  -9.0978   0.0000  -0.0642
 -17.000  -0.3877   0.11317   0.11043  -0.1093  0.1771  0.0026  -8.9996   0.0000  -0.0785
 -16.500  -0.3885   0.10536   0.10262  -0.1138  0.1699  0.0026  -9.0558   0.0000  -0.0882
 -15.500  -0.8740   0.01055   0.00649  -0.1947  0.2828  0.0021  -17.6167   0.0000   0.0039
 -14.500  -0.7596   0.00963   0.00546  -0.1965  0.2241  0.0024  -15.4794   0.0000  -0.0318
 -14.000  -0.7011   0.00920   0.00500  -0.1975  0.2217  0.0025  -14.4432   0.0000  -0.0549
 -13.000  -0.5838   0.00848   0.00419  -0.1993  0.1924  0.0028  -12.6252   0.0000  -0.1154
 -11.000  -0.3458   0.00732   0.00289  -0.2030  0.1456  0.0038  -9.2828   0.0000  -0.3669
 -10.500  -0.2862   0.00712   0.00266  -0.2038  0.1406  0.0039  -8.5129   0.0000  -0.4958
 -10.000  -0.2264   0.00695   0.00247  -0.2046  0.1355  0.0040  -7.7721   0.0000  -0.6930
  -9.500  -0.1666   0.00680   0.00230  -0.2054  0.1303  0.0041  -7.0607   0.0000  -1.0325
  -9.000  -0.1068   0.00667   0.00214  -0.2061  0.1239  0.0041  -6.3791   0.0000  -1.7529
  -8.500  -0.0469   0.00654   0.00200  -0.2069  0.1236  0.0041  -5.7252   0.0000  -4.3140
  -8.000   0.0129   0.00644   0.00188  -0.2076  0.1234  0.0042  -5.1008   0.0000  16.7959
  -7.500   0.0728   0.00635   0.00177  -0.2083  0.1230  0.0042  -4.5061   0.0000   3.1979
  -7.000   0.1325   0.00627   0.00168  -0.2090  0.1228  0.0043  -4.0429   0.0000   1.8701
  -6.500   0.1917   0.00625   0.00161  -0.2096  0.1032  0.0043  -3.6529   0.0000   1.3707
  -6.000   0.2512   0.00621   0.00155  -0.2102  0.1002  0.0043  -3.2769   0.0000   1.1062
  -5.500   0.3106   0.00619   0.00150  -0.2108  0.0974  0.0044  -2.9160   0.0000   0.9430
  -5.000   0.3699   0.00617   0.00147  -0.2114  0.0948  0.0044  -2.5705   0.0000   0.8322
  -4.500   0.4292   0.00616   0.00145  -0.2120  0.0895  0.0044  -2.2402   0.0000   0.7522
  -4.000   0.4884   0.00616   0.00144  -0.2126  0.0843  0.0045  -1.9257   0.0000   0.6915
  -3.500   0.5474   0.00617   0.00144  -0.2131  0.0842  0.0045  -1.6271   0.0000   0.6440
  -3.000   0.6064   0.00619   0.00145  -0.2136  0.0841  0.0046  -1.3442   0.0000   0.6058
  -2.500   0.6651   0.00622   0.00146  -0.2141  0.0839  0.0046  -1.0767   0.0000   0.5743
  -2.000   0.7222   0.00639   0.00155  -0.2143  0.0501  0.0049  -0.9620   0.0000   0.5480
  -1.500   0.7803   0.00648   0.00161  -0.2147  0.0464  0.0057  -1.0124   0.0000   0.5255
  -1.000   0.8384   0.00656   0.00167  -0.2150  0.0438  0.0067  -1.0647   0.0000   0.5061
  -0.500   0.8963   0.00664   0.00175  -0.2154  0.0415  0.0074  -1.1173   0.0000   0.4892
   0.000   0.9540   0.00674   0.00183  -0.2157  0.0393  0.0080  -1.1702   0.0000   0.4742
   0.500   1.0115   0.00684   0.00192  -0.2160  0.0382  0.0099  -1.2251   0.0000   0.4610
   1.000   1.0690   0.00694   0.00202  -0.2163  0.0404  0.0170  -1.2903   0.0000   0.4491
   1.500   1.1260   0.00706   0.00213  -0.2166  0.0395  0.0171  -1.3660   0.0000   0.4383
   2.000   1.1826   0.00721   0.00226  -0.2167  0.0373  0.0209  -1.4422   0.0000   0.4285
   2.500   1.2357   0.00766   0.00261  -0.2161  0.0015  0.0371  -1.5309   0.0000   0.4195
   3.500   1.3467   0.00807   0.00298  -0.2161  0.0013  0.0392  -1.7646   0.0000   0.4036
   4.000   1.4016   0.00829   0.00319  -0.2160  0.0013  0.0421  -1.9108   0.0000   0.3965
   4.500   1.4561   0.00853   0.00342  -0.2158  0.0013  0.0479  -2.0895   0.0000   0.3898
   5.500   1.5640   0.00905   0.00392  -0.2154  0.0013  0.0738  -2.4600   0.0000   0.3777
   6.000   1.6175   0.00933   0.00421  -0.2151  0.0012  0.1078  -2.6515   0.0000   0.3722
   6.500   1.6701   0.00964   0.00451  -0.2146  0.0012  0.1198  -2.8465   0.0000   0.3669
   7.500   1.7735   0.01030   0.00516  -0.2135  0.0012  0.1468  -3.2470   0.0000   0.3570
   8.000   1.8238   0.01067   0.00552  -0.2127  0.0012  0.1464  -3.4515   0.0000   0.3524
   8.500   1.8734   0.01106   0.00591  -0.2118  0.0012  0.1636  -3.6588   0.0000   0.3479
   9.000   1.9228   0.01146   0.00634  -0.2109  0.0012  0.2191  -3.9357   0.0000   0.3436
   9.500   1.9706   0.01190   0.00679  -0.2097  0.0012  0.2492  -4.3139   0.0000   0.3394
  10.000   2.0177   0.01235   0.00729  -0.2084  0.0012  0.3093  -4.8979   0.0000   0.3353
  11.500   2.1309   0.01406   0.00903  -0.1991  0.0011  0.3697  -6.6591   0.0000   0.3224
  12.000   2.1597   0.01481   0.00980  -0.1944  0.0010  0.3699  -7.2389   0.0000   0.3180
  12.500   2.1893   0.01568   0.01068  -0.1901  0.0010  0.3724  -7.8446   0.0000   0.3138
  13.000   2.2182   0.01667   0.01173  -0.1860  0.0010  0.4343  -8.4670   0.0000   0.3097
  13.500   2.2452   0.01785   0.01296  -0.1818  0.0009  0.4683  -9.0974   0.0000   0.3057
  15.000   2.2683   0.02568   0.02109  -0.1634  0.0018  0.5298  -10.5762   0.0000   0.2934
  15.500   2.2860   0.02818   0.02365  -0.1598  0.0023  0.5624  -11.2230   0.0000   0.2901
  16.000   2.2988   0.03122   0.02674  -0.1560  0.0027  0.5828  -11.8127   0.0000   0.2868
  17.500   2.3187   0.04319   0.03896  -0.1462  0.0040  0.6605  -13.4823   0.0000   0.2781
  18.000   2.3207   0.04828   0.04414  -0.1438  0.0042  0.6907  -14.0162   0.0000   0.2756
  18.500   2.3204   0.05393   0.04988  -0.1417  0.0044  0.7197  -14.5380   0.0000   0.2733
  19.000   2.3170   0.06025   0.05632  -0.1402  0.0046  0.7599  -15.0365   0.0000   0.2713


