XFLR5 v6.02 Beta

 Calculated polar for: WORTMANN FX 63-137

 1 1 Reynolds number fixed          Mach number fixed         

 xtrf =   1.000 (top)        1.000 (bottom)
 Mach =   0.000     Re =    29.500 e 6     Ncrit =   9.000

  alpha     CL        CD       CDp       CM    Top Xtr Bot Xtr   Cpmin    Chinge    XCp    
 ------- -------- --------- --------- -------- ------- ------- -------- --------- ---------
 -21.500  -1.0851   0.06656   0.06363  -0.1396  0.5952  0.0023  -24.3632   0.0000   0.0841
 -20.500  -1.1884   0.04034   0.03711  -0.1606  0.5953  0.0023  -25.6839   0.0000   0.0823
 -20.000  -1.2023   0.03318   0.02975  -0.1665  0.5563  0.0023  -25.5591   0.0000   0.0808
 -19.500  -1.1990   0.02830   0.02478  -0.1700  0.5356  0.0024  -25.1156   0.0000   0.0789
 -19.000  -1.1909   0.02382   0.02023  -0.1734  0.5321  0.0024  -24.5902   0.0000   0.0765
 -18.500  -1.1798   0.02038   0.01673  -0.1748  0.5309  0.0025  -23.9880   0.0000   0.0752
 -17.500  -1.0938   0.01520   0.01130  -0.1855  0.4671  0.0027  -22.0173   0.0000   0.0555
 -17.000  -1.0437   0.01408   0.01003  -0.1876  0.4032  0.0028  -20.9265   0.0000   0.0459
 -16.500  -0.9898   0.01311   0.00901  -0.1893  0.4009  0.0030  -19.8059   0.0000   0.0349
 -15.500  -0.8791   0.01162   0.00741  -0.1919  0.3732  0.0033  -17.6041   0.0000   0.0085
 -15.000  -0.8224   0.01103   0.00674  -0.1930  0.3623  0.0034  -16.5271   0.0000  -0.0077
 -14.500  -0.7651   0.01051   0.00617  -0.1941  0.3444  0.0035  -15.4725   0.0000  -0.0266
 -14.000  -0.7088   0.01014   0.00567  -0.1948  0.2836  0.0036  -14.4574   0.0000  -0.0478
 -13.500  -0.6503   0.00971   0.00520  -0.1958  0.2772  0.0037  -13.5081   0.0000  -0.0743
 -13.000  -0.5922   0.00937   0.00480  -0.1966  0.2500  0.0037  -12.6136   0.0000  -0.1057
 -12.500  -0.5334   0.00904   0.00440  -0.1975  0.2413  0.0038  -11.7406   0.0000  -0.1447
 -12.000  -0.4750   0.00879   0.00406  -0.1983  0.1966  0.0038  -10.8980   0.0000  -0.1928
 -11.000  -0.3562   0.00826   0.00344  -0.2001  0.1851  0.0040  -9.2760   0.0000  -0.3407
 -10.500  -0.2965   0.00803   0.00318  -0.2009  0.1777  0.0040  -8.5086   0.0000  -0.4600
 -10.000  -0.2367   0.00781   0.00293  -0.2018  0.1703  0.0040  -7.7698   0.0000  -0.6402
  -9.500  -0.1768   0.00761   0.00271  -0.2027  0.1696  0.0041  -7.0615   0.0000  -0.9430
  -9.000  -0.1169   0.00744   0.00251  -0.2035  0.1685  0.0041  -6.3858   0.0000  -1.5569
  -8.500  -0.0577   0.00734   0.00235  -0.2042  0.1424  0.0041  -5.7392   0.0000  -3.4113
  -8.000   0.0020   0.00723   0.00219  -0.2049  0.1370  0.0042  -5.1185   0.0000  105.8930
  -7.500   0.0618   0.00712   0.00206  -0.2057  0.1320  0.0042  -4.5266   0.0000   3.6772
  -7.000   0.1216   0.00702   0.00194  -0.2064  0.1283  0.0043  -4.0504   0.0000   1.9942
  -6.500   0.1813   0.00694   0.00185  -0.2071  0.1243  0.0043  -3.6610   0.0000   1.4210
  -6.000   0.2410   0.00687   0.00177  -0.2078  0.1238  0.0043  -3.2867   0.0000   1.1321
  -5.500   0.3006   0.00682   0.00170  -0.2085  0.1234  0.0044  -2.9271   0.0000   0.9581
  -5.000   0.3601   0.00678   0.00165  -0.2091  0.1230  0.0044  -2.5808   0.0000   0.8417
  -4.500   0.4195   0.00676   0.00161  -0.2097  0.1222  0.0045  -2.2532   0.0000   0.7584
  -4.000   0.4778   0.00683   0.00162  -0.2102  0.1025  0.0045  -1.9427   0.0000   0.6962
  -3.500   0.5363   0.00688   0.00163  -0.2106  0.0922  0.0046  -1.6463   0.0000   0.6475
  -3.000   0.5952   0.00690   0.00164  -0.2111  0.0890  0.0057  -1.3641   0.0000   0.6082
  -2.500   0.6539   0.00693   0.00166  -0.2116  0.0860  0.0060  -1.0964   0.0000   0.5760
  -2.000   0.7124   0.00698   0.00169  -0.2121  0.0842  0.0068  -0.9560   0.0000   0.5491
  -1.000   0.8289   0.00710   0.00180  -0.2129  0.0823  0.0096  -1.0584   0.0000   0.5066
  -0.500   0.8855   0.00730   0.00192  -0.2131  0.0618  0.0150  -1.1098   0.0000   0.4895
   0.000   0.9427   0.00743   0.00203  -0.2133  0.0517  0.0154  -1.1622   0.0000   0.4744
   0.500   0.9999   0.00756   0.00214  -0.2135  0.0497  0.0159  -1.2161   0.0000   0.4610
   1.000   1.0572   0.00766   0.00224  -0.2138  0.0512  0.0171  -1.2801   0.0000   0.4490
   1.500   1.1140   0.00780   0.00236  -0.2140  0.0510  0.0173  -1.3554   0.0000   0.4381
   2.000   1.1701   0.00797   0.00252  -0.2141  0.0480  0.0211  -1.4310   0.0000   0.4283
   2.500   1.2218   0.00853   0.00295  -0.2133  0.0033  0.0375  -1.5164   0.0000   0.4191
   3.000   1.2770   0.00876   0.00316  -0.2132  0.0024  0.0383  -1.6285   0.0000   0.4108
   3.500   1.3318   0.00899   0.00338  -0.2131  0.0019  0.0454  -1.7454   0.0000   0.4031
   4.000   1.3862   0.00925   0.00362  -0.2129  0.0024  0.0490  -1.8845   0.0000   0.3960
   4.500   1.4404   0.00951   0.00388  -0.2127  0.0018  0.0663  -2.0615   0.0000   0.3893
   5.000   1.4937   0.00980   0.00416  -0.2123  0.0014  0.0713  -2.2422   0.0000   0.3830
   5.500   1.5470   0.01009   0.00446  -0.2120  0.0013  0.1021  -2.4276   0.0000   0.3771
   6.000   1.5998   0.01040   0.00480  -0.2116  0.0012  0.1467  -2.6170   0.0000   0.3715
   6.500   1.6515   0.01075   0.00515  -0.2110  0.0012  0.1673  -2.8092   0.0000   0.3662
   7.000   1.7027   0.01111   0.00552  -0.2103  0.0012  0.1955  -3.0051   0.0000   0.3611
   7.500   1.7527   0.01151   0.00592  -0.2095  0.0012  0.2142  -3.2032   0.0000   0.3562
   8.000   1.8012   0.01194   0.00634  -0.2083  0.0012  0.2094  -3.4030   0.0000   0.3515
   8.500   1.8513   0.01234   0.00684  -0.2076  0.0012  0.3103  -3.6095   0.0000   0.3471
   9.000   1.8980   0.01282   0.00733  -0.2062  0.0012  0.3363  -3.8637   0.0000   0.3426
   9.500   1.9432   0.01334   0.00788  -0.2046  0.0011  0.3695  -4.1565   0.0000   0.3383
  10.500   2.0180   0.01451   0.00917  -0.1983  0.0011  0.4769  -5.2244   0.0000   0.3294
  11.500   2.0792   0.01613   0.01084  -0.1897  0.0011  0.5064  -6.3117   0.0000   0.3204
  12.000   2.1083   0.01713   0.01188  -0.1856  0.0010  0.5317  -6.8803   0.0000   0.3161
  12.500   2.1356   0.01830   0.01308  -0.1813  0.0010  0.5478  -7.4584   0.0000   0.3120
  13.000   2.1622   0.01964   0.01447  -0.1773  0.0010  0.5707  -8.0497   0.0000   0.3080
  13.500   2.1872   0.02121   0.01612  -0.1734  0.0009  0.6261  -8.6492   0.0000   0.3042
  14.000   2.2075   0.02308   0.01806  -0.1692  0.0009  0.6570  -9.2324   0.0000   0.3004
  14.500   2.2277   0.02522   0.02027  -0.1654  0.0009  0.6909  -9.8315   0.0000   0.2968
  15.000   2.2466   0.02765   0.02276  -0.1618  0.0009  0.7237  -10.4366   0.0000   0.2934
  15.500   2.2641   0.03042   0.02563  -0.1586  0.0008  0.7726  -11.0471   0.0000   0.2902
  16.000   2.2806   0.03355   0.02887  -0.1558  0.0008  0.8383  -11.6647   0.0000   0.2872
  16.500   2.2984   0.03710   0.03264  -0.1539  0.0008  1.0000  -12.3088   0.0000   0.2845
  17.000   2.3056   0.04108   0.03668  -0.1508  0.0007  1.0000  -12.8763   0.0000   0.2817
  17.500   2.3094   0.04577   0.04144  -0.1481  0.0006  1.0000  -13.4252   0.0000   0.2790
  19.000   2.2364   0.07197   0.06811  -0.1407  0.0018  1.0000  -14.2304   0.0000   0.2734
  19.500   2.2341   0.07852   0.07474  -0.1403  0.0020  1.0000  -14.7502   0.0000   0.2718


