xflr5 v6.59

 Calculated polar for: WORTMANN FX 63-137 AIRFOIL

 1 1 Reynolds number fixed          Mach number fixed         

 xtrf =   1.000 (top)        1.000 (bottom)
 Mach =   0.000     Re =     3.000 e 6     Ncrit =   9.000

  alpha     CL        CD       CDp       Cm    Top Xtr Bot Xtr   Cpmin    Chinge    XCp    
 ------- -------- --------- --------- -------- ------- ------- -------- --------- ---------
 -12.700   -0.0937   0.10966   0.10699   -0.1083   0.6593   0.0072   -2.6014   0.0000   -1.0108   
 -12.600   -0.0926   0.10796   0.10530   -0.1090   0.6584   0.0077   -2.6312   0.0000   -1.0341   
 -12.500   -0.1025   0.10318   0.10054   -0.1107   0.6600   0.0085   -2.9577   0.0000   -0.9272   
 -12.200   -0.0899   0.10084   0.09819   -0.1125   0.6534   0.0110   -2.7474   0.0000   -1.1087   
 -12.100   -0.0870   0.09971   0.09705   -0.1130   0.6508   0.0111   -2.7308   0.0000   -1.1596   
 -12.000   -0.0839   0.09867   0.09600   -0.1135   0.6456   0.0112   -2.7079   0.0000   -1.2158   
 -11.900   -0.0807   0.09772   0.09502   -0.1139   0.6379   0.0112   -2.6798   0.0000   -1.2770   
 -11.800   -0.0775   0.09680   0.09406   -0.1143   0.6293   0.0113   -2.6490   0.0000   -1.3455   
 -11.700   -0.0739   0.09588   0.09313   -0.1147   0.6253   0.0114   -2.6159   0.0000   -1.4267   
 -11.600   -0.0704   0.09497   0.09221   -0.1152   0.6211   0.0114   -2.5813   0.0000   -1.5169   
 -11.500   -0.0667   0.09409   0.09131   -0.1156   0.6171   0.0115   -2.5455   0.0000   -1.6174   
 -11.400   -0.0631   0.09323   0.09043   -0.1160   0.6130   0.0116   -2.5088   0.0000   -1.7296   
 -11.300   -0.0595   0.09239   0.08957   -0.1164   0.6087   0.0117   -2.4711   0.0000   -1.8563   
 -11.200   -0.0558   0.09156   0.08872   -0.1168   0.6039   0.0119   -2.4325   0.0000   -2.0015   
 -11.100   -0.0520   0.09073   0.08789   -0.1172   0.5997   0.0120   -2.3930   0.0000   -2.1726   
 -11.000   -0.0481   0.08991   0.08706   -0.1177   0.5971   0.0121   -2.3526   0.0000   -2.3766   
 -10.900   -0.0441   0.08910   0.08625   -0.1181   0.5960   0.0123   -2.3112   0.0000   -2.6228   
 -10.800   -0.0399   0.08830   0.08545   -0.1186   0.5946   0.0125   -2.2683   0.0000   -2.9285   
 -10.700   -0.0357   0.08751   0.08465   -0.1190   0.5928   0.0128   -2.2243   0.0000   -3.3171   
 -10.600   -0.0314   0.08673   0.08387   -0.1195   0.5902   0.0131   -2.1793   0.0000   -3.8183   
 -10.500   -0.0269   0.08596   0.08310   -0.1199   0.5894   0.0135   -2.1332   0.0000   -4.5136   
 -10.400   -0.0230   0.08530   0.08239   -0.1202   0.5746   0.0140   -2.0890   0.0000   -5.3190   
 -10.300   -0.0188   0.08462   0.08166   -0.1205   0.5631   0.0146   -2.0452   0.0000   -6.5833   
 -10.200   -0.0141   0.08385   0.08087   -0.1209   0.5582   0.0152   -2.0054   0.0000   -8.8717   
 -10.100   -0.0095   0.08303   0.08003   -0.1213   0.5537   0.0157   -1.9724   0.0000   -13.2729   
 -10.000   -0.0048   0.08226   0.07924   -0.1216   0.5491   0.0161   -1.9373   0.0000   -26.4955   
 -9.400   -0.1846   0.00971   0.00463   -0.1956   0.6591   0.0065   -6.1283   0.0000   -0.8537   
 -9.300   -0.1726   0.00961   0.00448   -0.1958   0.6538   0.0064   -6.0142   0.0000   -0.9307   
 -9.000   -0.1400   0.00950   0.00414   -0.1960   0.6026   0.0063   -5.6885   0.0000   -1.2048   
 -8.900   -0.1279   0.00940   0.00401   -0.1963   0.5957   0.0063   -5.5757   0.0000   -1.3430   
 -8.800   -0.1158   0.00930   0.00389   -0.1965   0.5914   0.0063   -5.4632   0.0000   -1.5107   
 -8.700   -0.1039   0.00921   0.00378   -0.1968   0.5861   0.0063   -5.3520   0.0000   -1.7149   
 -8.600   -0.0933   0.00924   0.00370   -0.1967   0.5637   0.0063   -5.2486   0.0000   -1.9355   
 -8.500   -0.0815   0.00918   0.00361   -0.1969   0.5577   0.0062   -5.1397   0.0000   -2.2533   
 -8.400   -0.0697   0.00913   0.00352   -0.1971   0.5519   0.0062   -5.0320   0.0000   -2.6762   
 -8.300   -0.0580   0.00909   0.00344   -0.1972   0.5461   0.0062   -4.9254   0.0000   -3.2663   
 -8.200   -0.0463   0.00905   0.00336   -0.1974   0.5395   0.0062   -4.8194   0.0000   -4.1582   
 -8.100   -0.0344   0.00899   0.00328   -0.1976   0.5337   0.0061   -4.7132   0.0000   -5.6934   
 -8.000   -0.0222   0.00893   0.00320   -0.1978   0.5316   0.0061   -4.6071   0.0000   -8.9377   
 -7.900   -0.0101   0.00887   0.00313   -0.1980   0.5299   0.0061   -4.5019   0.0000   -19.9472   
 -7.800   0.0019   0.00881   0.00305   -0.1982   0.5275   0.0061   -4.3977   0.0000   105.7076   
 -7.700   0.0140   0.00876   0.00298   -0.1984   0.5251   0.0060   -4.2945   0.0000   14.8761   
 -7.600   0.0251   0.00878   0.00294   -0.1984   0.5105   0.0060   -4.2113   0.0000   8.4063   
 -7.500   0.0363   0.00880   0.00289   -0.1985   0.4964   0.0060   -4.1380   0.0000   5.8905   
 -7.400   0.0480   0.00878   0.00284   -0.1986   0.4902   0.0060   -4.0633   0.0000   4.5151   
 -7.300   0.0596   0.00876   0.00279   -0.1987   0.4841   0.0059   -3.9893   0.0000   3.6837   
 -7.200   0.0712   0.00875   0.00275   -0.1988   0.4777   0.0059   -3.9158   0.0000   3.1242   
 -7.100   0.0829   0.00873   0.00270   -0.1989   0.4707   0.0059   -3.8422   0.0000   2.7173   
 -7.000   0.0949   0.00870   0.00265   -0.1991   0.4668   0.0059   -3.7681   0.0000   2.4068   
 -6.900   0.1070   0.00865   0.00259   -0.1993   0.4662   0.0059   -3.6934   0.0000   2.1639   
 -6.800   0.1190   0.00862   0.00254   -0.1995   0.4647   0.0059   -3.6196   0.0000   1.9712   
 -6.700   0.1310   0.00858   0.00250   -0.1996   0.4625   0.0059   -3.5463   0.0000   1.8144   
 -6.600   0.1430   0.00855   0.00246   -0.1998   0.4609   0.0060   -3.4733   0.0000   1.6837   
 -6.500   0.1541   0.00859   0.00245   -0.1998   0.4467   0.0060   -3.4036   0.0000   1.5801   
 -6.400   0.1651   0.00864   0.00243   -0.1998   0.4322   0.0060   -3.3345   0.0000   1.4908   
 -6.300   0.1768   0.00863   0.00240   -0.1999   0.4268   0.0059   -3.2635   0.0000   1.4090   
 -6.200   0.1884   0.00863   0.00238   -0.2000   0.4216   0.0059   -3.1932   0.0000   1.3377   
 -6.100   0.1999   0.00864   0.00235   -0.2001   0.4163   0.0059   -3.1236   0.0000   1.2748   
 -6.000   0.2116   0.00864   0.00233   -0.2002   0.4106   0.0059   -3.0538   0.0000   1.2185   
 -5.900   0.2233   0.00863   0.00231   -0.2003   0.4046   0.0059   -2.9834   0.0000   1.1677   
 -5.800   0.2353   0.00861   0.00228   -0.2005   0.4019   0.0058   -2.9116   0.0000   1.1214   
 -5.700   0.2472   0.00859   0.00226   -0.2006   0.4007   0.0058   -2.8384   0.0000   1.0797   
 -5.600   0.2590   0.00857   0.00225   -0.2007   0.3993   0.0058   -2.7629   0.0000   1.0419   
 -5.500   0.2707   0.00857   0.00225   -0.2008   0.3970   0.0058   -2.6789   0.0000   1.0078   
 -5.300   0.2920   0.00874   0.00242   -0.2006   0.3779   0.0058   -2.4748   0.0000   0.9512   
 -5.200   0.3033   0.00877   0.00241   -0.2007   0.3677   0.0057   -2.4117   0.0000   0.9250   
 -5.100   0.3149   0.00877   0.00240   -0.2008   0.3632   0.0057   -2.3495   0.0000   0.9001   
 -5.000   0.3265   0.00878   0.00238   -0.2009   0.3589   0.0057   -2.2892   0.0000   0.8770   
 -4.900   0.3381   0.00879   0.00236   -0.2010   0.3544   0.0057   -2.2306   0.0000   0.8555   
 -4.800   0.3498   0.00879   0.00234   -0.2011   0.3498   0.0057   -2.1733   0.0000   0.8354   
 -4.700   0.3616   0.00879   0.00232   -0.2012   0.3446   0.0057   -2.1171   0.0000   0.8164   
 -4.600   0.3735   0.00877   0.00230   -0.2013   0.3402   0.0056   -2.0620   0.0000   0.7985   
 -4.500   0.3855   0.00875   0.00227   -0.2015   0.3387   0.0056   -2.0080   0.0000   0.7817   
 -4.400   0.3975   0.00872   0.00223   -0.2017   0.3377   0.0056   -1.9563   0.0000   0.7658   
 -4.300   0.4095   0.00870   0.00220   -0.2018   0.3366   0.0056   -1.9049   0.0000   0.7508   
 -4.200   0.4215   0.00868   0.00217   -0.2020   0.3353   0.0056   -1.8551   0.0000   0.7368   
 -4.100   0.4335   0.00866   0.00214   -0.2022   0.3336   0.0057   -1.8071   0.0000   0.7235   
 -4.000   0.4455   0.00864   0.00211   -0.2023   0.3330   0.0057   -1.7609   0.0000   0.7108   
 -3.900   0.4557   0.00877   0.00214   -0.2022   0.3090   0.0057   -1.7210   0.0000   0.7000   
 -3.800   0.4675   0.00877   0.00212   -0.2023   0.3045   0.0059   -1.6837   0.0000   0.6887   
 -3.700   0.4810   0.00866   0.00200   -0.2028   0.3002   0.0141   -1.7809   0.0000   0.6772   
 -3.600   0.4923   0.00869   0.00202   -0.2028   0.2962   0.0146   -1.7107   0.0000   0.6673   
 -3.500   0.5036   0.00873   0.00204   -0.2028   0.2920   0.0150   -1.6377   0.0000   0.6578   
 -3.400   0.5148   0.00876   0.00207   -0.2029   0.2877   0.0154   -1.5612   0.0000   0.6488   
 -3.300   0.5261   0.00880   0.00210   -0.2029   0.2829   0.0157   -1.4827   0.0000   0.6401   
 -3.200   0.5375   0.00882   0.00213   -0.2029   0.2792   0.0160   -1.4052   0.0000   0.6317   
 -3.100   0.5490   0.00884   0.00216   -0.2030   0.2782   0.0163   -1.3308   0.0000   0.6237   
 -3.000   0.5605   0.00885   0.00218   -0.2031   0.2774   0.0165   -1.2604   0.0000   0.6160   
 -2.900   0.5721   0.00885   0.00220   -0.2032   0.2764   0.0166   -1.1935   0.0000   0.6085   
 -2.800   0.5837   0.00886   0.00223   -0.2033   0.2752   0.0168   -1.1294   0.0000   0.6014   
 -2.700   0.5952   0.00888   0.00226   -0.2034   0.2738   0.0170   -1.0644   0.0000   0.5946   
 -2.300   0.6400   0.00911   0.00218   -0.2034   0.2312   0.0165   -0.9431   0.0000   0.5699   
 -2.200   0.6512   0.00915   0.00220   -0.2034   0.2215   0.0166   -0.9123   0.0000   0.5642   
 -2.100   0.6628   0.00917   0.00221   -0.2035   0.2196   0.0167   -0.9212   0.0000   0.5587   
 -2.000   0.6743   0.00919   0.00222   -0.2036   0.2173   0.0168   -0.9300   0.0000   0.5534   
 -1.900   0.6846   0.00931   0.00229   -0.2035   0.2007   0.0169   -0.9390   0.0000   0.5485   
 -1.800   0.6957   0.00937   0.00232   -0.2035   0.1938   0.0170   -0.9478   0.0000   0.5435   
 -1.700   0.7071   0.00940   0.00233   -0.2035   0.1914   0.0170   -0.9566   0.0000   0.5387   
 -0.900   0.7989   0.00959   0.00240   -0.2041   0.1715   0.0187   -1.0375   0.0000   0.5049   
 -0.800   0.8106   0.00960   0.00241   -0.2041   0.1702   0.0188   -1.0480   0.0000   0.5012   
 -0.700   0.8222   0.00961   0.00241   -0.2042   0.1699   0.0190   -1.0584   0.0000   0.4976   
 -0.600   0.8337   0.00962   0.00242   -0.2043   0.1694   0.0191   -1.0689   0.0000   0.4941   
 -0.500   0.8453   0.00964   0.00243   -0.2044   0.1687   0.0193   -1.0793   0.0000   0.4907   
 -0.400   0.8567   0.00967   0.00245   -0.2044   0.1674   0.0193   -1.0898   0.0000   0.4874   
 -0.300   0.8680   0.00970   0.00247   -0.2045   0.1653   0.0193   -1.1002   0.0000   0.4841   
 -0.200   0.8777   0.00988   0.00257   -0.2042   0.1461   0.0193   -1.1105   0.0000   0.4811   
 -0.100   0.8889   0.00992   0.00260   -0.2042   0.1441   0.0191   -1.1209   0.0000   0.4780   
 0.000   0.9000   0.00996   0.00263   -0.2042   0.1421   0.0189   -1.1312   0.0000   0.4750   
 0.100   0.9111   0.01001   0.00267   -0.2042   0.1402   0.0188   -1.1415   0.0000   0.4721   
 0.200   0.9223   0.01006   0.00270   -0.2042   0.1382   0.0187   -1.1518   0.0000   0.4692   
 0.300   0.9334   0.01011   0.00274   -0.2042   0.1362   0.0185   -1.1621   0.0000   0.4665   
 0.400   0.9445   0.01015   0.00277   -0.2042   0.1342   0.0184   -1.1724   0.0000   0.4637   
 0.500   0.9557   0.01019   0.00280   -0.2042   0.1319   0.0183   -1.1827   0.0000   0.4611   
 0.600   0.9669   0.01023   0.00284   -0.2042   0.1295   0.0183   -1.1930   0.0000   0.4585   
 0.700   0.9781   0.01026   0.00287   -0.2042   0.1272   0.0182   -1.2034   0.0000   0.4559   
 0.800   0.9893   0.01030   0.00291   -0.2042   0.1252   0.0182   -1.2158   0.0000   0.4534   
 0.900   1.0005   0.01033   0.00295   -0.2042   0.1241   0.0186   -1.2282   0.0000   0.4510   
 1.000   1.0117   0.01036   0.00298   -0.2042   0.1239   0.0189   -1.2405   0.0000   0.4486   
 1.100   1.0228   0.01040   0.00301   -0.2042   0.1235   0.0221   -1.2528   0.0000   0.4462   
 1.200   1.0341   0.01043   0.00307   -0.2042   0.1232   0.0261   -1.2652   0.0000   0.4439   
 1.300   1.0456   0.01045   0.00311   -0.2043   0.1228   0.0344   -1.2777   0.0000   0.4417   
 1.400   1.0568   0.01048   0.00315   -0.2043   0.1223   0.0360   -1.2901   0.0000   0.4395   
 1.500   1.0679   0.01052   0.00319   -0.2044   0.1217   0.0368   -1.3026   0.0000   0.4374   
 1.600   1.0790   0.01056   0.00322   -0.2044   0.1210   0.0374   -1.3150   0.0000   0.4352   
 1.700   1.0901   0.01060   0.00327   -0.2043   0.1198   0.0379   -1.3301   0.0000   0.4332   
 1.800   1.1011   0.01064   0.00331   -0.2043   0.1188   0.0382   -1.3453   0.0000   0.4312   
 1.900   1.1102   0.01085   0.00345   -0.2040   0.1030   0.0385   -1.3647   0.0000   0.4292   
 2.000   1.1210   0.01091   0.00350   -0.2039   0.1017   0.0399   -1.3795   0.0000   0.4272   
 2.100   1.1317   0.01098   0.00355   -0.2038   0.1004   0.0417   -1.3946   0.0000   0.4253   
 2.200   1.1424   0.01104   0.00360   -0.2038   0.0990   0.0447   -1.4099   0.0000   0.4234   
 2.300   1.1536   0.01108   0.00368   -0.2038   0.0978   0.0629   -1.4255   0.0000   0.4216   
 2.400   1.1644   0.01115   0.00373   -0.2038   0.0965   0.0650   -1.4408   0.0000   0.4197   
 2.500   1.1751   0.01121   0.00379   -0.2037   0.0941   0.0673   -1.4561   0.0000   0.4179   
 2.600   1.1857   0.01129   0.00386   -0.2036   0.0880   0.0792   -1.4720   0.0000   0.4162   
 2.700   1.1971   0.01132   0.00392   -0.2037   0.0842   0.1020   -1.4877   0.0000   0.4145   
 2.800   1.2079   0.01138   0.00398   -0.2037   0.0835   0.1076   -1.5091   0.0000   0.4128   
 2.900   1.2187   0.01143   0.00405   -0.2036   0.0823   0.1152   -1.5331   0.0000   0.4111   
 3.000   1.2295   0.01149   0.00412   -0.2036   0.0804   0.1223   -1.5573   0.0000   0.4095   
 3.100   1.2388   0.01169   0.00429   -0.2033   0.0664   0.1434   -1.5836   0.0000   0.4079   
 3.200   1.2489   0.01179   0.00437   -0.2032   0.0637   0.1462   -1.6024   0.0000   0.4063   
 3.300   1.2593   0.01188   0.00445   -0.2030   0.0616   0.1563   -1.6214   0.0000   0.4047   
 3.400   1.2701   0.01195   0.00452   -0.2030   0.0596   0.1683   -1.6412   0.0000   0.4032   
 3.500   1.2813   0.01199   0.00460   -0.2031   0.0575   0.1929   -1.6625   0.0000   0.4017   
 3.600   1.2919   0.01206   0.00467   -0.2030   0.0554   0.1992   -1.6840   0.0000   0.4002   
 3.700   1.3028   0.01211   0.00474   -0.2031   0.0536   0.2143   -1.7066   0.0000   0.3987   
 3.800   1.3145   0.01213   0.00481   -0.2033   0.0521   0.2467   -1.7300   0.0000   0.3974   
 3.900   1.3245   0.01220   0.00487   -0.2030   0.0547   0.2288   -1.7561   0.0000   0.3959   
 4.000   1.3356   0.01225   0.00494   -0.2031   0.0539   0.2496   -1.7903   0.0000   0.3945   
 4.100   1.3467   0.01229   0.00502   -0.2031   0.0528   0.2694   -1.8246   0.0000   0.3931   
 4.200   1.3584   0.01231   0.00510   -0.2034   0.0518   0.3053   -1.8600   0.0000   0.3918   
 4.300   1.3691   0.01237   0.00517   -0.2033   0.0516   0.3173   -1.8944   0.0000   0.3905   
 4.400   1.3805   0.01240   0.00526   -0.2035   0.0514   0.3443   -1.9301   0.0000   0.3892   
 4.500   1.3917   0.01244   0.00534   -0.2036   0.0511   0.3688   -1.9659   0.0000   0.3880   
 4.600   1.4023   0.01251   0.00543   -0.2035   0.0505   0.3837   -2.0011   0.0000   0.3867   
 4.700   1.4129   0.01257   0.00553   -0.2035   0.0496   0.3995   -2.0367   0.0000   0.3854   
 4.800   1.4236   0.01265   0.00564   -0.2035   0.0479   0.4221   -2.0727   0.0000   0.3842   
 4.900   1.4334   0.01276   0.00576   -0.2033   0.0457   0.4324   -2.1076   0.0000   0.3829   
 5.000   1.4431   0.01289   0.00588   -0.2030   0.0436   0.4417   -2.1422   0.0000   0.3816   
 5.100   1.4534   0.01298   0.00600   -0.2030   0.0417   0.4617   -2.1777   0.0000   0.3804   
 5.200   1.4641   0.01305   0.00611   -0.2030   0.0400   0.4888   -2.2138   0.0000   0.3792   
 5.300   1.4742   0.01313   0.00621   -0.2028   0.0386   0.5001   -2.2491   0.0000   0.3780   
 5.400   1.4846   0.01321   0.00631   -0.2027   0.0381   0.5170   -2.2855   0.0000   0.3769   
 5.500   1.4946   0.01329   0.00641   -0.2026   0.0379   0.5220   -2.3216   0.0000   0.3757   
 5.600   1.5044   0.01338   0.00650   -0.2023   0.0376   0.5252   -2.3577   0.0000   0.3745   
 5.700   1.5141   0.01347   0.00659   -0.2021   0.0373   0.5279   -2.3939   0.0000   0.3733   
 5.800   1.5238   0.01357   0.00668   -0.2019   0.0370   0.5301   -2.4302   0.0000   0.3721   
 5.900   1.5334   0.01367   0.00678   -0.2016   0.0365   0.5320   -2.4666   0.0000   0.3710   
 6.000   1.5380   0.01411   0.00714   -0.2005   0.0233   0.5363   -2.4984   0.0000   0.3697   
 6.100   1.5459   0.01432   0.00732   -0.1999   0.0177   0.5410   -2.5178   0.0000   0.3685   
 6.200   1.5551   0.01444   0.00745   -0.1996   0.0165   0.5458   -2.5518   0.0000   0.3674   
 6.500   1.5767   0.01518   0.00817   -0.1975   0.0043   0.5622   -2.6567   0.0000   0.3638   
 6.600   1.5852   0.01532   0.00831   -0.1971   0.0041   0.5654   -2.6923   0.0000   0.3627   
 6.700   1.5941   0.01544   0.00845   -0.1967   0.0039   0.5758   -2.7286   0.0000   0.3616   
 6.800   1.6028   0.01557   0.00859   -0.1963   0.0038   0.5835   -2.7645   0.0000   0.3605   
 6.900   1.6108   0.01570   0.00873   -0.1958   0.0036   0.5885   -2.7989   0.0000   0.3594   
 7.000   1.6181   0.01583   0.00886   -0.1951   0.0034   0.5930   -2.8320   0.0000   0.3583   
 7.100   1.6252   0.01596   0.00900   -0.1943   0.0033   0.5968   -2.8647   0.0000   0.3571   
 7.200   1.6327   0.01609   0.00914   -0.1937   0.0031   0.6058   -2.8982   0.0000   0.3560   
 7.300   1.6404   0.01622   0.00930   -0.1931   0.0029   0.6156   -2.9320   0.0000   0.3549   
 7.400   1.6477   0.01636   0.00945   -0.1924   0.0027   0.6229   -2.9654   0.0000   0.3538   
 7.500   1.6549   0.01650   0.00959   -0.1918   0.0025   0.6276   -2.9985   0.0000   0.3527   
 7.600   1.6622   0.01665   0.00975   -0.1911   0.0023   0.6324   -3.0320   0.0000   0.3517   
 7.700   1.6697   0.01679   0.00991   -0.1905   0.0021   0.6419   -3.0662   0.0000   0.3506   
 7.800   1.6771   0.01695   0.01008   -0.1899   0.0019   0.6490   -3.1003   0.0000   0.3496   
 7.900   1.6842   0.01710   0.01025   -0.1892   0.0017   0.6548   -3.1341   0.0000   0.3485   
 8.000   1.6912   0.01727   0.01042   -0.1885   0.0015   0.6592   -3.1678   0.0000   0.3474   
 8.600   1.7319   0.01837   0.01161   -0.1842   0.0013   0.6899   -3.3712   0.0000   0.3413   
 8.700   1.7383   0.01858   0.01182   -0.1835   0.0013   0.6933   -3.4048   0.0000   0.3403   
 8.800   1.7448   0.01879   0.01205   -0.1828   0.0013   0.6997   -3.4386   0.0000   0.3393   
 8.900   1.7512   0.01901   0.01229   -0.1821   0.0013   0.7054   -3.4725   0.0000   0.3384   
 9.000   1.7576   0.01923   0.01253   -0.1813   0.0013   0.7105   -3.5062   0.0000   0.3374   
 9.100   1.7636   0.01946   0.01277   -0.1806   0.0013   0.7153   -3.5395   0.0000   0.3364   
 9.200   1.7695   0.01970   0.01303   -0.1798   0.0013   0.7197   -3.5722   0.0000   0.3354   
 10.100   1.8220   0.02221   0.01577   -0.1732   0.0013   0.7992   -3.9396   0.0000   0.3272   
 10.200   1.8276   0.02254   0.01613   -0.1725   0.0013   0.8102   -3.9819   0.0000   0.3263   
 10.300   1.8333   0.02287   0.01650   -0.1718   0.0013   0.8236   -4.0244   0.0000   0.3255   
 10.400   1.8386   0.02323   0.01690   -0.1711   0.0013   0.8383   -4.0657   0.0000   0.3246   
 10.500   1.8438   0.02359   0.01733   -0.1704   0.0013   0.8578   -4.1067   0.0000   0.3238   
 10.600   1.8495   0.02395   0.01777   -0.1698   0.0013   0.8947   -4.1485   0.0000   0.3230   
