XFLR5 v6.02 Beta

 Calculated polar for: WORTMANN FX 63-137

 1 1 Reynolds number fixed          Mach number fixed         

 xtrf =   1.000 (top)        1.000 (bottom)
 Mach =   0.000     Re =    70.000 e 6     Ncrit =   9.000

  alpha     CL        CD       CDp       CM    Top Xtr Bot Xtr   Cpmin    Chinge    XCp    
 ------- -------- --------- --------- -------- ------- ------- -------- --------- ---------
 -24.000  -0.4314   0.23384   0.23151  -0.0447  0.2276  0.0013  -5.1794   0.0000   0.0978
 -23.500  -0.4139   0.22910   0.22675  -0.0485  0.2216  0.0013  -4.9833   0.0000   0.0840
 -23.000  -0.3962   0.22460   0.22223  -0.0523  0.2211  0.0013  -4.7934   0.0000   0.0689
 -22.500  -0.3781   0.22055   0.21817  -0.0561  0.2210  0.0013  -4.6063   0.0000   0.0523
 -22.000  -0.3598   0.21677   0.21437  -0.0597  0.2210  0.0013  -4.4225   0.0000   0.0341
 -21.500  -0.3426   0.21156   0.20910  -0.0632  0.1901  0.0013  -4.2514   0.0000   0.0149
 -21.000  -0.3253   0.20617   0.20368  -0.0667  0.1697  0.0013  -4.0856   0.0000  -0.0066
 -20.000  -0.3242   0.18265   0.18011  -0.0757  0.1698  0.0014  -5.7744   0.0000  -0.0368
 -19.000  -1.2519   0.01706   0.01342  -0.1809  0.4011  0.0014  -25.6470   0.0000   0.0785
 -18.500  -1.2001   0.01478   0.01109  -0.1871  0.4009  0.0015  -24.4995   0.0000   0.0679
 -18.000  -1.1498   0.01373   0.00990  -0.1892  0.3162  0.0015  -23.3494   0.0000   0.0599
 -17.500  -1.0969   0.01290   0.00900  -0.1906  0.3003  0.0016  -22.1791   0.0000   0.0513
 -17.000  -1.0424   0.01217   0.00823  -0.1918  0.2930  0.0017  -21.0139   0.0000   0.0416
 -16.500  -0.9868   0.01152   0.00755  -0.1930  0.2860  0.0018  -19.8618   0.0000   0.0305
 -16.000  -0.9303   0.01093   0.00694  -0.1941  0.2791  0.0019  -18.7276   0.0000   0.0178
 -15.500  -0.8732   0.01038   0.00636  -0.1951  0.2785  0.0020  -17.6145   0.0000   0.0032
 -15.000  -0.8165   0.00994   0.00584  -0.1959  0.2426  0.0021  -16.5359   0.0000  -0.0131
 -14.500  -0.7586   0.00950   0.00536  -0.1969  0.2219  0.0022  -15.4747   0.0000  -0.0326
 -14.000  -0.7001   0.00908   0.00492  -0.1979  0.2212  0.0024  -14.4378   0.0000  -0.0558
 -13.500  -0.6418   0.00874   0.00452  -0.1987  0.1939  0.0024  -13.5167   0.0000  -0.0830
 -13.000  -0.5829   0.00840   0.00414  -0.1996  0.1871  0.0026  -12.6203   0.0000  -0.1164
 -12.000  -0.4645   0.00779   0.00346  -0.2014  0.1450  0.0030  -10.9031   0.0000  -0.2094
 -11.500  -0.4046   0.00749   0.00313  -0.2024  0.1462  0.0034  -10.0789   0.0000  -0.2777
 -11.000  -0.3448   0.00724   0.00286  -0.2032  0.1424  0.0037  -9.2820   0.0000  -0.3694
 -10.500  -0.2850   0.00703   0.00262  -0.2041  0.1375  0.0039  -8.5108   0.0000  -0.4997
 -10.000  -0.2252   0.00686   0.00242  -0.2049  0.1326  0.0040  -7.7689   0.0000  -0.6994
  -9.500  -0.1654   0.00671   0.00226  -0.2057  0.1274  0.0041  -7.0572   0.0000  -1.0437
  -9.000  -0.1055   0.00658   0.00210  -0.2064  0.1238  0.0041  -6.3753   0.0000  -1.7789
  -8.500  -0.0457   0.00646   0.00197  -0.2072  0.1235  0.0041  -5.7213   0.0000  -4.4424
  -8.000   0.0142   0.00635   0.00185  -0.2079  0.1232  0.0042  -5.0969   0.0000  15.3948
  -7.500   0.0740   0.00626   0.00174  -0.2086  0.1228  0.0042  -4.5023   0.0000   3.1535
  -7.000   0.1338   0.00619   0.00165  -0.2093  0.1227  0.0043  -4.0410   0.0000   1.8575
  -6.500   0.1929   0.00617   0.00159  -0.2099  0.1015  0.0043  -3.6513   0.0000   1.3655
  -6.000   0.2523   0.00614   0.00153  -0.2105  0.0986  0.0043  -3.2751   0.0000   1.1034
  -5.500   0.3117   0.00611   0.00148  -0.2111  0.0959  0.0044  -2.9140   0.0000   0.9412
  -5.000   0.3711   0.00609   0.00145  -0.2117  0.0932  0.0044  -2.5683   0.0000   0.8311
  -4.500   0.4304   0.00608   0.00143  -0.2123  0.0867  0.0044  -2.2381   0.0000   0.7514
  -4.000   0.4896   0.00608   0.00141  -0.2128  0.0843  0.0045  -1.9234   0.0000   0.6910
  -3.500   0.5487   0.00609   0.00141  -0.2134  0.0842  0.0045  -1.6248   0.0000   0.6436
  -3.000   0.6076   0.00611   0.00142  -0.2139  0.0841  0.0046  -1.3419   0.0000   0.6055
  -2.500   0.6664   0.00614   0.00144  -0.2144  0.0838  0.0046  -1.0745   0.0000   0.5741
  -2.000   0.7234   0.00633   0.00153  -0.2145  0.0477  0.0048  -0.9627   0.0000   0.5479
  -1.500   0.7816   0.00640   0.00159  -0.2149  0.0447  0.0055  -1.0132   0.0000   0.5255
  -1.000   0.8397   0.00648   0.00165  -0.2153  0.0423  0.0064  -1.0656   0.0000   0.5061
  -0.500   0.8976   0.00656   0.00172  -0.2157  0.0401  0.0071  -1.1182   0.0000   0.4891
   0.000   0.9553   0.00665   0.00180  -0.2160  0.0382  0.0076  -1.1711   0.0000   0.4742
   0.500   1.0128   0.00676   0.00189  -0.2163  0.0381  0.0095  -1.2262   0.0000   0.4610
   1.000   1.0704   0.00685   0.00199  -0.2166  0.0392  0.0169  -1.2915   0.0000   0.4491
   1.500   1.1275   0.00697   0.00210  -0.2169  0.0385  0.0171  -1.3673   0.0000   0.4383
   2.000   1.1829   0.00722   0.00229  -0.2168  0.0252  0.0203  -1.4422   0.0000   0.4285
   3.500   1.3483   0.00796   0.00294  -0.2164  0.0013  0.0387  -1.7667   0.0000   0.4036
   4.000   1.4033   0.00819   0.00315  -0.2164  0.0013  0.0413  -1.9137   0.0000   0.3965
   4.500   1.4579   0.00842   0.00337  -0.2162  0.0013  0.0470  -2.0927   0.0000   0.3899
   5.500   1.5660   0.00893   0.00386  -0.2158  0.0013  0.0724  -2.4636   0.0000   0.3778
   6.000   1.6195   0.00921   0.00415  -0.2155  0.0012  0.1047  -2.6554   0.0000   0.3723
   6.500   1.6721   0.00951   0.00444  -0.2150  0.0012  0.1166  -2.8506   0.0000   0.3670
   7.500   1.7758   0.01016   0.00508  -0.2140  0.0012  0.1463  -3.2519   0.0000   0.3571
   8.000   1.8264   0.01053   0.00544  -0.2132  0.0012  0.1460  -3.4569   0.0000   0.3525
   8.500   1.8760   0.01092   0.00581  -0.2123  0.0012  0.1558  -3.6645   0.0000   0.3480
   9.000   1.9255   0.01131   0.00623  -0.2114  0.0012  0.2112  -3.9436   0.0000   0.3437
  10.500   2.0660   0.01268   0.00767  -0.2074  0.0011  0.3308  -5.5222   0.0000   0.3313
  11.000   2.1084   0.01323   0.00823  -0.2052  0.0011  0.3412  -6.1417   0.0000   0.3273
  12.500   2.1955   0.01541   0.01045  -0.1912  0.0010  0.3695  -7.8895   0.0000   0.3140
  13.000   2.2235   0.01639   0.01146  -0.1868  0.0009  0.4009  -8.5071   0.0000   0.3099
  14.000   2.2428   0.02080   0.01611  -0.1733  0.0016  0.4657  -9.4629   0.0000   0.3010
  14.500   2.2568   0.02290   0.01827  -0.1681  0.0017  0.4714  -10.0217   0.0000   0.2971
  15.000   2.2761   0.02506   0.02047  -0.1642  0.0022  0.5004  -10.6706   0.0000   0.2935
  15.500   2.2922   0.02764   0.02312  -0.1603  0.0026  0.5328  -11.2759   0.0000   0.2901
  16.000   2.3052   0.03066   0.02621  -0.1566  0.0030  0.5627  -11.8662   0.0000   0.2869
  16.500   2.3154   0.03410   0.02971  -0.1530  0.0034  0.5872  -12.4449   0.0000   0.2838
  17.000   2.3233   0.03800   0.03370  -0.1498  0.0038  0.6263  -13.0149   0.0000   0.2809
  17.500   2.3260   0.04237   0.03815  -0.1466  0.0043  0.6367  -13.5474   0.0000   0.2780
  18.000   2.3284   0.04734   0.04320  -0.1440  0.0045  0.6594  -14.0872   0.0000   0.2755
  18.500   2.3288   0.05285   0.04880  -0.1419  0.0046  0.6904  -14.6181   0.0000   0.2732
  19.000   2.3251   0.05910   0.05515  -0.1403  0.0046  0.7189  -15.1170   0.0000   0.2711
  19.500   2.3324   0.06409   0.06023  -0.1391  0.0046  0.7609  -15.7328   0.0000   0.2689
  20.000   2.3239   0.07141   0.06768  -0.1385  0.0047  0.8016  -16.1976   0.0000   0.2673


