XFLR5 v6.02 Beta

 Calculated polar for: WORTMANN FX 63-137

 1 1 Reynolds number fixed          Mach number fixed         

 xtrf =   1.000 (top)        1.000 (bottom)
 Mach =   0.000     Re =    42.500 e 6     Ncrit =   9.000

  alpha     CL        CD       CDp       CM    Top Xtr Bot Xtr   Cpmin    Chinge    XCp    
 ------- -------- --------- --------- -------- ------- ------- -------- --------- ---------
 -22.000  -1.1194   0.06764   0.06458  -0.1403  0.4788  0.0017  -25.3842   0.0000   0.0865
 -21.500  -1.2001   0.05068   0.04746  -0.1536  0.4949  0.0017  -26.6317   0.0000   0.0866
 -21.000  -1.2304   0.04100   0.03764  -0.1613  0.4857  0.0017  -26.8384   0.0000   0.0855
 -20.500  -1.2455   0.03369   0.03023  -0.1671  0.4722  0.0018  -26.7259   0.0000   0.0842
 -20.000  -1.2423   0.02884   0.02531  -0.1706  0.4671  0.0018  -26.2702   0.0000   0.0825
 -19.500  -1.2338   0.02451   0.02092  -0.1738  0.4663  0.0019  -25.7230   0.0000   0.0804
 -18.500  -1.1944   0.01818   0.01449  -0.1783  0.4656  0.0020  -24.2707   0.0000   0.0744
 -18.000  -1.1485   0.01578   0.01197  -0.1838  0.4304  0.0021  -23.2294   0.0000   0.0645
 -17.500  -1.0966   0.01432   0.01033  -0.1876  0.3568  0.0022  -22.1067   0.0000   0.0541
 -17.000  -1.0435   0.01335   0.00932  -0.1893  0.3463  0.0023  -20.9688   0.0000   0.0443
 -16.500  -0.9889   0.01252   0.00845  -0.1907  0.3390  0.0024  -19.8355   0.0000   0.0332
 -16.000  -0.9331   0.01178   0.00767  -0.1920  0.3381  0.0025  -18.7150   0.0000   0.0207
 -14.500  -0.7628   0.01006   0.00578  -0.1953  0.2774  0.0030  -15.4879   0.0000  -0.0290
 -14.000  -0.7053   0.00963   0.00527  -0.1962  0.2453  0.0032  -14.4623   0.0000  -0.0512
 -13.500  -0.6469   0.00924   0.00483  -0.1971  0.2275  0.0033  -13.5377   0.0000  -0.0780
 -13.000  -0.5878   0.00884   0.00440  -0.1981  0.2219  0.0035  -12.6355   0.0000  -0.1108
 -12.000  -0.4701   0.00826   0.00370  -0.1998  0.1702  0.0038  -10.9120   0.0000  -0.2007
 -11.500  -0.4105   0.00799   0.00340  -0.2007  0.1702  0.0039  -10.0836   0.0000  -0.2662
 -11.000  -0.3508   0.00776   0.00314  -0.2016  0.1698  0.0039  -9.2863   0.0000  -0.3542
 -10.500  -0.2910   0.00754   0.00290  -0.2024  0.1693  0.0040  -8.5174   0.0000  -0.4786
 -10.000  -0.2312   0.00735   0.00269  -0.2033  0.1688  0.0040  -7.7772   0.0000  -0.6678
  -9.500  -0.1719   0.00722   0.00250  -0.2040  0.1441  0.0041  -7.0709   0.0000  -0.9846
  -9.000  -0.1123   0.00709   0.00232  -0.2047  0.1338  0.0041  -6.3926   0.0000  -1.6412
  -8.500  -0.0525   0.00695   0.00217  -0.2055  0.1287  0.0041  -5.7393   0.0000  -3.8025
  -8.000   0.0074   0.00684   0.00203  -0.2062  0.1241  0.0042  -5.1155   0.0000  29.0886
  -7.500   0.0672   0.00673   0.00192  -0.2070  0.1238  0.0042  -4.5212   0.0000   3.4210
  -7.000   0.1270   0.00665   0.00181  -0.2077  0.1236  0.0043  -4.0496   0.0000   1.9302
  -6.500   0.1867   0.00657   0.00172  -0.2084  0.1233  0.0043  -3.6583   0.0000   1.3941
  -6.000   0.2464   0.00652   0.00165  -0.2091  0.1229  0.0043  -3.2822   0.0000   1.1181
  -5.500   0.3060   0.00647   0.00160  -0.2097  0.1224  0.0044  -2.9215   0.0000   0.9498
  -5.000   0.3647   0.00650   0.00157  -0.2102  0.1017  0.0044  -2.5779   0.0000   0.8373
  -4.500   0.4238   0.00650   0.00154  -0.2108  0.0987  0.0045  -2.2489   0.0000   0.7556
  -4.000   0.4828   0.00652   0.00153  -0.2113  0.0909  0.0045  -1.9356   0.0000   0.6940
  -3.500   0.5418   0.00653   0.00153  -0.2118  0.0859  0.0046  -1.6373   0.0000   0.6458
  -3.000   0.6007   0.00655   0.00154  -0.2124  0.0843  0.0050  -1.3546   0.0000   0.6070
  -2.500   0.6594   0.00658   0.00156  -0.2129  0.0841  0.0048  -1.0868   0.0000   0.5752
  -2.000   0.7180   0.00663   0.00159  -0.2133  0.0838  0.0057  -0.9595   0.0000   0.5485
  -1.500   0.7749   0.00681   0.00169  -0.2135  0.0596  0.0070  -1.0088   0.0000   0.5260
  -1.000   0.8329   0.00689   0.00176  -0.2138  0.0512  0.0080  -1.0610   0.0000   0.5064
  -0.500   0.8905   0.00700   0.00184  -0.2141  0.0486  0.0089  -1.1133   0.0000   0.4893
   0.000   0.9480   0.00711   0.00194  -0.2144  0.0458  0.0096  -1.1659   0.0000   0.4743
   0.500   1.0054   0.00722   0.00204  -0.2147  0.0432  0.0157  -1.2204   0.0000   0.4610
   1.000   1.0628   0.00732   0.00214  -0.2150  0.0458  0.0170  -1.2849   0.0000   0.4490
   1.500   1.1196   0.00746   0.00226  -0.2152  0.0445  0.0172  -1.3603   0.0000   0.4382
   2.000   1.1762   0.00761   0.00240  -0.2154  0.0426  0.0195  -1.4364   0.0000   0.4284
   2.500   1.2287   0.00810   0.00279  -0.2147  0.0023  0.0373  -1.5235   0.0000   0.4193
   3.500   1.3392   0.00854   0.00318  -0.2146  0.0014  0.0421  -1.7549   0.0000   0.4034
   4.000   1.3938   0.00878   0.00341  -0.2144  0.0016  0.0454  -1.8974   0.0000   0.3962
   4.500   1.4481   0.00903   0.00365  -0.2142  0.0014  0.0557  -2.0753   0.0000   0.3896
   5.000   1.5020   0.00930   0.00391  -0.2140  0.0013  0.0670  -2.2574   0.0000   0.3833
   5.500   1.5553   0.00959   0.00419  -0.2136  0.0013  0.0808  -2.4434   0.0000   0.3774
   6.000   1.6085   0.00988   0.00451  -0.2133  0.0012  0.1222  -2.6339   0.0000   0.3719
   6.500   1.6608   0.01020   0.00483  -0.2128  0.0012  0.1462  -2.8278   0.0000   0.3666
   7.000   1.7121   0.01055   0.00517  -0.2122  0.0012  0.1594  -3.0246   0.0000   0.3615
   7.500   1.7633   0.01090   0.00555  -0.2115  0.0012  0.1943  -3.2254   0.0000   0.3566
   8.000   1.8124   0.01132   0.00593  -0.2105  0.0012  0.1701  -3.4270   0.0000   0.3519
   8.500   1.8619   0.01172   0.00637  -0.2096  0.0012  0.2240  -3.6332   0.0000   0.3474
   9.000   1.9101   0.01216   0.00683  -0.2084  0.0012  0.2705  -3.8989   0.0000   0.3431
   9.500   1.9569   0.01263   0.00733  -0.2071  0.0012  0.3075  -4.2351   0.0000   0.3388
  10.000   2.0035   0.01311   0.00790  -0.2058  0.0011  0.3994  -4.8112   0.0000   0.3347
  10.500   2.0459   0.01367   0.00848  -0.2037  0.0011  0.4257  -5.3946   0.0000   0.3306
  11.000   2.0738   0.01432   0.00914  -0.1985  0.0011  0.4334  -5.9190   0.0000   0.3258
  11.500   2.1032   0.01508   0.00991  -0.1939  0.0011  0.4357  -6.4743   0.0000   0.3213
  12.000   2.1330   0.01595   0.01080  -0.1897  0.0010  0.4389  -7.0536   0.0000   0.3170
  12.500   2.1619   0.01695   0.01185  -0.1855  0.0010  0.4808  -7.6473   0.0000   0.3128
  13.000   2.1898   0.01811   0.01306  -0.1814  0.0010  0.5141  -8.2549   0.0000   0.3088
  13.500   2.2151   0.01948   0.01446  -0.1772  0.0009  0.5293  -8.8647   0.0000   0.3048
  14.000   2.2382   0.02110   0.01613  -0.1731  0.0009  0.5623  -9.4763   0.0000   0.3010
  14.500   2.2588   0.02296   0.01807  -0.1689  0.0009  0.6138  -10.0860   0.0000   0.2973
  15.000   2.2781   0.02512   0.02029  -0.1650  0.0008  0.6392  -10.7041   0.0000   0.2938
  15.500   2.2960   0.02761   0.02285  -0.1614  0.0008  0.6761  -11.3269   0.0000   0.2904
  16.500   2.2691   0.03868   0.03424  -0.1500  0.0015  0.7188  -11.9980   0.0000   0.2838
  17.000   2.2748   0.04302   0.03870  -0.1472  0.0018  0.7585  -12.5497   0.0000   0.2810
  17.500   2.2817   0.04780   0.04359  -0.1452  0.0021  0.8151  -13.1459   0.0000   0.2786
  18.000   2.2913   0.05354   0.04961  -0.1449  0.0027  1.0000  -13.7482   0.0000   0.2767
  18.500   2.2869   0.05990   0.05605  -0.1431  0.0030  1.0000  -14.2250   0.0000   0.2746
  19.000   2.2914   0.06517   0.06137  -0.1417  0.0033  1.0000  -14.7922   0.0000   0.2724
  19.500   2.2814   0.07254   0.06884  -0.1408  0.0035  1.0000  -15.2239   0.0000   0.2708


