XFLR5 v6.02 Beta

 Calculated polar for: WORTMANN FX 63-137

 1 1 Reynolds number fixed          Mach number fixed         

 xtrf =   1.000 (top)        1.000 (bottom)
 Mach =   0.000     Re =    66.750 e 6     Ncrit =   9.000

  alpha     CL        CD       CDp       CM    Top Xtr Bot Xtr   Cpmin    Chinge    XCp    
 ------- -------- --------- --------- -------- ------- ------- -------- --------- ---------
 -22.500  -1.2377   0.05773   0.05458  -0.1496  0.4068  0.0014  -28.0811   0.0000   0.0913
 -22.000  -1.2815   0.04629   0.04301  -0.1586  0.4062  0.0014  -28.5623   0.0000   0.0905
 -21.500  -1.3048   0.03767   0.03429  -0.1656  0.4073  0.0014  -28.6121   0.0000   0.0893
 -21.000  -1.3073   0.03216   0.02871  -0.1696  0.4048  0.0014  -28.2456   0.0000   0.0880
 -20.500  -1.3085   0.02687   0.02336  -0.1736  0.4025  0.0014  -27.8461   0.0000   0.0867
 -20.000  -1.2942   0.02331   0.01974  -0.1758  0.4018  0.0014  -27.1760   0.0000   0.0848
 -19.500  -1.2805   0.01996   0.01635  -0.1774  0.4014  0.0014  -26.5027   0.0000   0.0834
 -18.500  -1.2011   0.01512   0.01143  -0.1859  0.4010  0.0015  -24.4953   0.0000   0.0690
 -17.500  -1.0968   0.01303   0.00912  -0.1903  0.3045  0.0017  -22.1723   0.0000   0.0516
 -17.000  -1.0425   0.01229   0.00834  -0.1916  0.2971  0.0017  -21.0106   0.0000   0.0419
 -16.500  -0.9871   0.01162   0.00764  -0.1927  0.2901  0.0018  -19.8605   0.0000   0.0308
 -16.000  -0.9307   0.01102   0.00701  -0.1938  0.2831  0.0019  -18.7277   0.0000   0.0182
 -15.500  -0.8736   0.01047   0.00643  -0.1949  0.2790  0.0020  -17.6157   0.0000   0.0036
 -15.000  -0.8167   0.01000   0.00590  -0.1958  0.2498  0.0022  -16.5348   0.0000  -0.0129
 -14.500  -0.7591   0.00957   0.00541  -0.1967  0.2221  0.0023  -15.4770   0.0000  -0.0322
 -14.000  -0.7006   0.00914   0.00496  -0.1977  0.2215  0.0024  -14.4405   0.0000  -0.0553
 -13.500  -0.6423   0.00879   0.00456  -0.1985  0.1979  0.0025  -13.5194   0.0000  -0.0826
 -13.000  -0.5834   0.00844   0.00416  -0.1995  0.1901  0.0027  -12.6229   0.0000  -0.1159
 -12.000  -0.4650   0.00783   0.00348  -0.2012  0.1474  0.0031  -10.9057   0.0000  -0.2086
 -11.000  -0.3453   0.00728   0.00287  -0.2031  0.1440  0.0038  -9.2825   0.0000  -0.3682
 -10.500  -0.2856   0.00708   0.00264  -0.2039  0.1391  0.0039  -8.5118   0.0000  -0.4977
 -10.000  -0.2258   0.00691   0.00245  -0.2047  0.1340  0.0040  -7.7705   0.0000  -0.6961
  -9.500  -0.1660   0.00676   0.00228  -0.2055  0.1290  0.0041  -7.0590   0.0000  -1.0380
  -9.000  -0.1062   0.00662   0.00212  -0.2063  0.1238  0.0041  -6.3773   0.0000  -1.7657
  -8.500  -0.0463   0.00650   0.00198  -0.2070  0.1236  0.0041  -5.7233   0.0000  -4.3767
  -8.000   0.0136   0.00640   0.00186  -0.2077  0.1233  0.0042  -5.0989   0.0000  16.0718
  -7.500   0.0734   0.00631   0.00176  -0.2085  0.1228  0.0042  -4.5043   0.0000   3.1759
  -7.000   0.1331   0.00623   0.00167  -0.2092  0.1227  0.0043  -4.0420   0.0000   1.8639
  -6.500   0.1923   0.00621   0.00160  -0.2097  0.1024  0.0043  -3.6521   0.0000   1.3681
  -6.000   0.2517   0.00618   0.00154  -0.2103  0.0994  0.0043  -3.2760   0.0000   1.1048
  -5.500   0.3111   0.00615   0.00149  -0.2109  0.0966  0.0044  -2.9151   0.0000   0.9421
  -5.000   0.3705   0.00613   0.00146  -0.2116  0.0941  0.0044  -2.5694   0.0000   0.8317
  -4.500   0.4298   0.00612   0.00144  -0.2121  0.0882  0.0044  -2.2392   0.0000   0.7518
  -4.000   0.4890   0.00612   0.00142  -0.2127  0.0843  0.0045  -1.9246   0.0000   0.6913
  -3.500   0.5480   0.00613   0.00142  -0.2132  0.0842  0.0045  -1.6259   0.0000   0.6438
  -3.000   0.6070   0.00615   0.00143  -0.2138  0.0841  0.0046  -1.3431   0.0000   0.6056
  -2.500   0.6658   0.00618   0.00145  -0.2143  0.0838  0.0046  -1.0756   0.0000   0.5742
  -2.000   0.7228   0.00636   0.00154  -0.2144  0.0487  0.0048  -0.9623   0.0000   0.5480
  -1.500   0.7809   0.00644   0.00160  -0.2148  0.0455  0.0056  -1.0128   0.0000   0.5255
  -1.000   0.8390   0.00652   0.00166  -0.2152  0.0431  0.0066  -1.0651   0.0000   0.5061
  -0.500   0.8969   0.00660   0.00173  -0.2155  0.0408  0.0073  -1.1178   0.0000   0.4892
   0.000   0.9546   0.00670   0.00182  -0.2159  0.0387  0.0078  -1.1706   0.0000   0.4742
   0.500   1.0122   0.00680   0.00191  -0.2162  0.0382  0.0097  -1.2257   0.0000   0.4610
   1.000   1.0697   0.00690   0.00200  -0.2165  0.0398  0.0169  -1.2909   0.0000   0.4491
   1.500   1.1267   0.00702   0.00211  -0.2167  0.0389  0.0171  -1.3666   0.0000   0.4383
   2.500   1.2365   0.00761   0.00260  -0.2163  0.0015  0.0371  -1.5317   0.0000   0.4195
   3.500   1.3475   0.00802   0.00296  -0.2163  0.0013  0.0390  -1.7656   0.0000   0.4036
   4.000   1.4024   0.00824   0.00317  -0.2162  0.0013  0.0417  -1.9122   0.0000   0.3965
   4.500   1.4570   0.00848   0.00339  -0.2160  0.0013  0.0474  -2.0911   0.0000   0.3899
   5.500   1.5650   0.00899   0.00389  -0.2156  0.0013  0.0731  -2.4618   0.0000   0.3778
   6.000   1.6185   0.00927   0.00418  -0.2153  0.0012  0.1062  -2.6535   0.0000   0.3722
   6.500   1.6711   0.00957   0.00447  -0.2148  0.0012  0.1182  -2.8485   0.0000   0.3670
   7.500   1.7746   0.01023   0.00512  -0.2137  0.0012  0.1465  -3.2494   0.0000   0.3571
   8.000   1.8251   0.01060   0.00548  -0.2129  0.0012  0.1462  -3.4541   0.0000   0.3524
   8.500   1.8747   0.01099   0.00586  -0.2120  0.0012  0.1595  -3.6616   0.0000   0.3479
   9.000   1.9241   0.01139   0.00628  -0.2111  0.0012  0.2152  -3.9396   0.0000   0.3436
   9.500   1.9722   0.01181   0.00673  -0.2100  0.0012  0.2491  -4.3229   0.0000   0.3394
  10.000   2.0194   0.01227   0.00723  -0.2087  0.0012  0.3077  -4.9081   0.0000   0.3353
  10.500   2.0643   0.01277   0.00774  -0.2071  0.0011  0.3375  -5.5113   0.0000   0.3313
  11.500   2.1345   0.01395   0.00895  -0.1998  0.0011  0.3693  -6.6824   0.0000   0.3226
  12.000   2.1629   0.01469   0.00970  -0.1950  0.0010  0.3694  -7.2611   0.0000   0.3181
  12.500   2.1923   0.01555   0.01056  -0.1906  0.0010  0.3701  -7.8664   0.0000   0.3139
  14.000   2.2388   0.02102   0.01629  -0.1728  0.0014  0.4665  -9.4347   0.0000   0.3009
  14.500   2.2543   0.02309   0.01843  -0.1679  0.0015  0.4901  -9.9999   0.0000   0.2970
  15.000   2.2702   0.02549   0.02090  -0.1635  0.0020  0.5139  -10.6153   0.0000   0.2934
  15.500   2.2889   0.02791   0.02338  -0.1600  0.0025  0.5488  -11.2485   0.0000   0.2901
  16.000   2.3019   0.03094   0.02648  -0.1563  0.0029  0.5659  -11.8383   0.0000   0.2868
  16.500   2.3125   0.03440   0.03001  -0.1528  0.0032  0.5987  -12.4206   0.0000   0.2838
  17.000   2.3194   0.03832   0.03402  -0.1496  0.0036  0.6291  -12.9814   0.0000   0.2808
  17.500   2.3222   0.04280   0.03857  -0.1464  0.0041  0.6517  -13.5136   0.0000   0.2781
  18.000   2.3245   0.04782   0.04369  -0.1439  0.0044  0.6825  -14.0519   0.0000   0.2755
  18.500   2.3243   0.05339   0.04934  -0.1418  0.0045  0.7049  -14.5748   0.0000   0.2732
  19.000   2.3212   0.05970   0.05577  -0.1403  0.0046  0.7456  -15.0782   0.0000   0.2712
  19.500   2.3286   0.06469   0.06085  -0.1392  0.0046  0.7821  -15.6936   0.0000   0.2690
  20.000   2.3201   0.07205   0.06833  -0.1386  0.0046  0.8234  -16.1569   0.0000   0.2675


