XFLR5 v6.02 Beta

 Calculated polar for: WORTMANN FX 63-137

 1 1 Reynolds number fixed          Mach number fixed         

 xtrf =   1.000 (top)        1.000 (bottom)
 Mach =   0.000     Re =    35.000 e 6     Ncrit =   9.000

  alpha     CL        CD       CDp       CM    Top Xtr Bot Xtr   Cpmin    Chinge    XCp    
 ------- -------- --------- --------- -------- ------- ------- -------- --------- ---------
 -19.500  -1.2161   0.02642   0.02284  -0.1719  0.4986  0.0021  -25.4155   0.0000   0.0796
 -19.000  -1.2021   0.02275   0.01911  -0.1743  0.4925  0.0022  -24.7803   0.0000   0.0773
 -18.500  -1.1877   0.01952   0.01581  -0.1759  0.4859  0.0022  -24.1297   0.0000   0.0754
 -18.000  -1.1472   0.01677   0.01300  -0.1810  0.4751  0.0023  -23.1631   0.0000   0.0666
 -17.500  -1.0953   0.01479   0.01084  -0.1866  0.4044  0.0024  -22.0632   0.0000   0.0548
 -17.000  -1.0437   0.01375   0.00971  -0.1884  0.3777  0.0025  -20.9482   0.0000   0.0452
 -16.500  -0.9899   0.01286   0.00875  -0.1899  0.3634  0.0027  -19.8273   0.0000   0.0343
 -16.000  -0.9347   0.01208   0.00792  -0.1912  0.3540  0.0028  -18.7153   0.0000   0.0219
 -15.500  -0.8783   0.01138   0.00718  -0.1925  0.3475  0.0030  -17.6157   0.0000   0.0076
 -15.000  -0.8210   0.01076   0.00652  -0.1937  0.3391  0.0032  -16.5345   0.0000  -0.0090
 -14.500  -0.7644   0.01028   0.00595  -0.1946  0.3038  0.0034  -15.4877   0.0000  -0.0276
 -13.500  -0.6490   0.00948   0.00498  -0.1964  0.2437  0.0036  -13.5293   0.0000  -0.0759
 -13.000  -0.5902   0.00911   0.00458  -0.1974  0.2347  0.0037  -12.6285   0.0000  -0.1080
 -12.500  -0.5311   0.00877   0.00421  -0.1983  0.2246  0.0038  -11.7517   0.0000  -0.1478
 -12.000  -0.4728   0.00854   0.00388  -0.1990  0.1802  0.0038  -10.9093   0.0000  -0.1963
 -11.500  -0.4132   0.00826   0.00357  -0.1999  0.1830  0.0039  -10.0810   0.0000  -0.2608
 -11.000  -0.3536   0.00802   0.00329  -0.2008  0.1746  0.0039  -9.2850   0.0000  -0.3470
 -10.500  -0.2939   0.00779   0.00304  -0.2017  0.1701  0.0040  -8.5167   0.0000  -0.4688
 -10.000  -0.2341   0.00758   0.00281  -0.2025  0.1695  0.0040  -7.7771   0.0000  -0.6533
  -9.500  -0.1742   0.00740   0.00261  -0.2033  0.1687  0.0041  -7.0676   0.0000  -0.9651
  -9.000  -0.1150   0.00729   0.00242  -0.2040  0.1411  0.0041  -6.3942   0.0000  -1.5905
  -8.500  -0.0553   0.00716   0.00226  -0.2048  0.1356  0.0041  -5.7424   0.0000  -3.5836
  -8.000   0.0046   0.00704   0.00212  -0.2055  0.1306  0.0042  -5.1194   0.0000  46.8573
  -7.500   0.0644   0.00693   0.00199  -0.2063  0.1256  0.0042  -4.5259   0.0000   3.5497
  -7.000   0.1242   0.00684   0.00188  -0.2070  0.1240  0.0043  -4.0511   0.0000   1.9629
  -6.500   0.1839   0.00676   0.00179  -0.2077  0.1237  0.0043  -3.6605   0.0000   1.4079
  -6.000   0.2436   0.00670   0.00171  -0.2084  0.1234  0.0043  -3.2851   0.0000   1.1253
  -5.500   0.3032   0.00665   0.00165  -0.2091  0.1230  0.0044  -2.9250   0.0000   0.9541
  -5.000   0.3626   0.00662   0.00160  -0.2097  0.1223  0.0044  -2.5786   0.0000   0.8392
  -4.500   0.4212   0.00667   0.00159  -0.2102  0.1023  0.0045  -2.2524   0.0000   0.7573
  -4.000   0.4800   0.00669   0.00158  -0.2107  0.0973  0.0045  -1.9399   0.0000   0.6952
  -3.500   0.5389   0.00671   0.00158  -0.2112  0.0891  0.0046  -1.6422   0.0000   0.6467
  -3.000   0.5978   0.00674   0.00159  -0.2117  0.0861  0.0054  -1.3597   0.0000   0.6077
  -2.500   0.6565   0.00677   0.00161  -0.2122  0.0843  0.0051  -1.0917   0.0000   0.5756
  -2.000   0.7151   0.00681   0.00164  -0.2127  0.0841  0.0062  -0.9577   0.0000   0.5488
  -1.500   0.7734   0.00687   0.00169  -0.2131  0.0830  0.0076  -1.0079   0.0000   0.5261
  -1.000   0.8302   0.00706   0.00180  -0.2132  0.0620  0.0088  -1.0591   0.0000   0.5065
  -0.500   0.8877   0.00717   0.00189  -0.2135  0.0516  0.0098  -1.1114   0.0000   0.4894
   0.500   1.0024   0.00740   0.00209  -0.2141  0.0465  0.0158  -1.2181   0.0000   0.4610
   1.000   1.0599   0.00750   0.00219  -0.2144  0.0489  0.0170  -1.2824   0.0000   0.4490
   1.500   1.1166   0.00765   0.00232  -0.2146  0.0474  0.0172  -1.3576   0.0000   0.4382
   2.000   1.1729   0.00781   0.00247  -0.2147  0.0452  0.0202  -1.4335   0.0000   0.4283
   2.500   1.2251   0.00833   0.00287  -0.2139  0.0028  0.0374  -1.5198   0.0000   0.4192
   3.000   1.2804   0.00854   0.00307  -0.2139  0.0021  0.0382  -1.6327   0.0000   0.4109
   3.500   1.3353   0.00878   0.00328  -0.2138  0.0016  0.0438  -1.7500   0.0000   0.4032
   4.000   1.3898   0.00902   0.00352  -0.2136  0.0020  0.0472  -1.8907   0.0000   0.3961
   5.000   1.4977   0.00956   0.00404  -0.2131  0.0013  0.0678  -2.2495   0.0000   0.3831
   5.500   1.5509   0.00985   0.00433  -0.2127  0.0013  0.0852  -2.4350   0.0000   0.3772
   6.000   1.6041   0.01014   0.00466  -0.2124  0.0012  0.1453  -2.6254   0.0000   0.3717
   6.500   1.6558   0.01049   0.00499  -0.2118  0.0012  0.1541  -2.8179   0.0000   0.3664
   7.000   1.7076   0.01083   0.00536  -0.2113  0.0012  0.1942  -3.0150   0.0000   0.3613
   7.500   1.7577   0.01122   0.00574  -0.2104  0.0012  0.1958  -3.2137   0.0000   0.3564
   8.000   1.8067   0.01164   0.00614  -0.2094  0.0012  0.1952  -3.4148   0.0000   0.3517
   8.500   1.8562   0.01205   0.00661  -0.2085  0.0012  0.2690  -3.6206   0.0000   0.3472
   9.000   1.9040   0.01250   0.00709  -0.2073  0.0012  0.3081  -3.8810   0.0000   0.3429
   9.500   1.9493   0.01301   0.00760  -0.2057  0.0011  0.3287  -4.1921   0.0000   0.3385
  10.000   1.9957   0.01350   0.00821  -0.2044  0.0011  0.4342  -4.7642   0.0000   0.3345
  10.500   2.0303   0.01411   0.00883  -0.2006  0.0011  0.4493  -5.2999   0.0000   0.3299
  11.000   2.0610   0.01480   0.00954  -0.1962  0.0011  0.4640  -5.8351   0.0000   0.3253
  11.500   2.0908   0.01562   0.01039  -0.1918  0.0010  0.4788  -6.3910   0.0000   0.3208
  12.000   2.1201   0.01656   0.01135  -0.1875  0.0010  0.4839  -6.9632   0.0000   0.3165
  12.500   2.1475   0.01766   0.01250  -0.1832  0.0010  0.5178  -7.5441   0.0000   0.3123
  13.000   2.1742   0.01893   0.01381  -0.1790  0.0010  0.5360  -8.1394   0.0000   0.3083
  13.500   2.1997   0.02039   0.01532  -0.1751  0.0009  0.5651  -8.7457   0.0000   0.3044
  14.000   2.2234   0.02206   0.01707  -0.1712  0.0009  0.6243  -9.3578   0.0000   0.3007
  14.500   2.2441   0.02402   0.01910  -0.1672  0.0009  0.6545  -9.9652   0.0000   0.2971
  15.000   2.2636   0.02631   0.02145  -0.1635  0.0009  0.6899  -10.5797   0.0000   0.2936
  15.500   2.2794   0.02902   0.02423  -0.1598  0.0008  0.7181  -11.1806   0.0000   0.2903
  16.000   2.2962   0.03191   0.02720  -0.1567  0.0008  0.7602  -11.8051   0.0000   0.2871
  16.500   2.3105   0.03530   0.03070  -0.1539  0.0007  0.8248  -12.4250   0.0000   0.2842
  17.500   2.2705   0.05014   0.04606  -0.1459  0.0014  1.0000  -12.9997   0.0000   0.2791
  18.000   2.2709   0.05580   0.05180  -0.1440  0.0019  1.0000  -13.5477   0.0000   0.2769
  18.500   2.2688   0.06196   0.05805  -0.1424  0.0022  1.0000  -14.0506   0.0000   0.2748
  19.000   2.2616   0.06893   0.06511  -0.1413  0.0025  1.0000  -14.5033   0.0000   0.2730
  19.500   2.2504   0.07660   0.07288  -0.1407  0.0027  1.0000  -14.9173   0.0000   0.2715


