XFLR5 v6.02 Beta

 Calculated polar for: WORTMANN FX 63-137

 1 1 Reynolds number fixed          Mach number fixed         

 xtrf =   1.000 (top)        1.000 (bottom)
 Mach =   0.000     Re =    74.500 e 6     Ncrit =   9.000

  alpha     CL        CD       CDp       CM    Top Xtr Bot Xtr   Cpmin    Chinge    XCp    
 ------- -------- --------- --------- -------- ------- ------- -------- --------- ---------
 -22.500  -1.2763   0.05262   0.04944  -0.1541  0.4014  0.0014  -28.8454   0.0000   0.0920
 -22.000  -1.3113   0.04253   0.03923  -0.1621  0.4014  0.0014  -29.1321   0.0000   0.0912
 -21.000  -1.3276   0.02990   0.02646  -0.1718  0.4013  0.0014  -28.6117   0.0000   0.0887
 -20.500  -1.3186   0.02581   0.02231  -0.1745  0.4012  0.0014  -28.0259   0.0000   0.0871
 -20.000  -1.3045   0.02217   0.01862  -0.1770  0.4012  0.0014  -27.3564   0.0000   0.0851
 -19.500  -1.2916   0.01917   0.01559  -0.1777  0.4011  0.0014  -26.6800   0.0000   0.0845
 -19.000  -1.2533   0.01658   0.01295  -0.1820  0.4009  0.0014  -25.6853   0.0000   0.0779
 -18.500  -1.2003   0.01445   0.01073  -0.1882  0.3693  0.0014  -24.5200   0.0000   0.0671
 -18.000  -1.1502   0.01354   0.00970  -0.1896  0.3033  0.0015  -23.3631   0.0000   0.0597
 -17.500  -1.0968   0.01273   0.00885  -0.1910  0.2950  0.0015  -22.1866   0.0000   0.0510
 -17.000  -1.0421   0.01202   0.00810  -0.1922  0.2877  0.0016  -21.0176   0.0000   0.0412
 -16.500  -0.9864   0.01138   0.00744  -0.1933  0.2803  0.0017  -19.8631   0.0000   0.0301
 -16.000  -0.9298   0.01080   0.00683  -0.1943  0.2784  0.0018  -18.7273   0.0000   0.0174
 -15.500  -0.8726   0.01028   0.00628  -0.1954  0.2781  0.0019  -17.6131   0.0000   0.0028
 -15.000  -0.8160   0.00985   0.00577  -0.1962  0.2335  0.0020  -16.5353   0.0000  -0.0135
 -14.500  -0.7579   0.00941   0.00530  -0.1971  0.2216  0.0021  -15.4716   0.0000  -0.0332
 -14.000  -0.6994   0.00901   0.00487  -0.1981  0.2210  0.0023  -14.4343   0.0000  -0.0564
 -13.500  -0.6412   0.00867   0.00447  -0.1989  0.1910  0.0024  -13.5134   0.0000  -0.0836
 -13.000  -0.5823   0.00833   0.00410  -0.1998  0.1822  0.0025  -12.6166   0.0000  -0.1171
 -12.000  -0.4639   0.00774   0.00343  -0.2015  0.1427  0.0029  -10.8996   0.0000  -0.2104
 -11.500  -0.4040   0.00744   0.00311  -0.2025  0.1440  0.0033  -10.0762   0.0000  -0.2789
 -11.000  -0.3442   0.00720   0.00284  -0.2034  0.1402  0.0035  -9.2803   0.0000  -0.3710
 -10.500  -0.2843   0.00698   0.00260  -0.2043  0.1356  0.0038  -8.5096   0.0000  -0.5023
 -10.000  -0.2244   0.00680   0.00240  -0.2051  0.1307  0.0040  -7.7668   0.0000  -0.7036
  -9.500  -0.1646   0.00665   0.00223  -0.2059  0.1256  0.0040  -7.0548   0.0000  -1.0512
  -9.000  -0.1048   0.00652   0.00208  -0.2066  0.1237  0.0041  -6.3728   0.0000  -1.7962
  -8.500  -0.0449   0.00640   0.00194  -0.2074  0.1234  0.0041  -5.7186   0.0000  -4.5303
  -8.000   0.0150   0.00630   0.00183  -0.2081  0.1231  0.0042  -5.0943   0.0000  14.6023
  -7.500   0.0748   0.00621   0.00172  -0.2088  0.1228  0.0042  -4.4996   0.0000   3.1249
  -7.000   0.1341   0.00617   0.00164  -0.2094  0.1031  0.0043  -4.0418   0.0000   1.8546
  -6.500   0.1936   0.00612   0.00157  -0.2100  0.1003  0.0043  -3.6502   0.0000   1.3621
  -6.000   0.2531   0.00609   0.00151  -0.2107  0.0975  0.0043  -3.2738   0.0000   1.1015
  -5.500   0.3125   0.00606   0.00147  -0.2113  0.0950  0.0044  -2.9126   0.0000   0.9401
  -5.000   0.3719   0.00604   0.00143  -0.2119  0.0917  0.0044  -2.5669   0.0000   0.8304
  -4.500   0.4312   0.00603   0.00141  -0.2125  0.0850  0.0044  -2.2367   0.0000   0.7509
  -4.000   0.4904   0.00603   0.00140  -0.2130  0.0842  0.0045  -1.9219   0.0000   0.6906
  -3.500   0.5495   0.00604   0.00140  -0.2136  0.0841  0.0045  -1.6232   0.0000   0.6434
  -3.000   0.6084   0.00606   0.00141  -0.2141  0.0840  0.0046  -1.3404   0.0000   0.6053
  -2.500   0.6672   0.00609   0.00143  -0.2146  0.0838  0.0046  -1.0730   0.0000   0.5739
  -2.000   0.7241   0.00628   0.00152  -0.2147  0.0465  0.0047  -0.9632   0.0000   0.5478
  -1.500   0.7824   0.00635   0.00157  -0.2151  0.0436  0.0054  -1.0138   0.0000   0.5254
  -1.000   0.8405   0.00642   0.00163  -0.2155  0.0413  0.0062  -1.0661   0.0000   0.5060
  -0.500   0.8985   0.00651   0.00171  -0.2158  0.0391  0.0069  -1.1188   0.0000   0.4891
   0.000   0.9562   0.00660   0.00178  -0.2162  0.0382  0.0074  -1.1718   0.0000   0.4742
   0.500   1.0137   0.00670   0.00187  -0.2165  0.0381  0.0093  -1.2269   0.0000   0.4610
   1.000   1.0713   0.00679   0.00197  -0.2168  0.0386  0.0169  -1.2923   0.0000   0.4491
   1.500   1.1284   0.00691   0.00208  -0.2171  0.0382  0.0171  -1.3681   0.0000   0.4384
   2.000   1.1834   0.00720   0.00229  -0.2169  0.0214  0.0200  -1.4425   0.0000   0.4286
   2.500   1.2382   0.00750   0.00255  -0.2167  0.0014  0.0370  -1.5335   0.0000   0.4196
   3.000   1.2940   0.00769   0.00273  -0.2167  0.0013  0.0379  -1.6499   0.0000   0.4113
   3.500   1.3494   0.00790   0.00291  -0.2167  0.0013  0.0385  -1.7681   0.0000   0.4037
   4.000   1.4044   0.00812   0.00312  -0.2166  0.0013  0.0409  -1.9156   0.0000   0.3966
   4.500   1.4591   0.00835   0.00334  -0.2164  0.0013  0.0464  -2.0947   0.0000   0.3900
   5.500   1.5672   0.00886   0.00383  -0.2160  0.0013  0.0715  -2.4660   0.0000   0.3779
   6.000   1.6208   0.00913   0.00411  -0.2158  0.0012  0.1036  -2.6580   0.0000   0.3723
   6.500   1.6735   0.00943   0.00439  -0.2153  0.0012  0.1146  -2.8533   0.0000   0.3671
   7.000   1.7260   0.00973   0.00471  -0.2149  0.0012  0.1454  -3.0529   0.0000   0.3620
   7.500   1.7774   0.01007   0.00503  -0.2143  0.0012  0.1460  -3.2551   0.0000   0.3572
   8.000   1.8280   0.01044   0.00538  -0.2135  0.0012  0.1457  -3.4604   0.0000   0.3526
   8.500   1.8778   0.01082   0.00575  -0.2126  0.0012  0.1514  -3.6684   0.0000   0.3481
   9.000   1.9274   0.01121   0.00616  -0.2117  0.0012  0.2061  -3.9489   0.0000   0.3438
   9.500   1.9759   0.01162   0.00661  -0.2107  0.0012  0.2491  -4.3436   0.0000   0.3396
  10.000   2.0226   0.01208   0.00707  -0.2093  0.0012  0.2728  -4.9279   0.0000   0.3355
  10.500   2.0683   0.01257   0.00758  -0.2078  0.0011  0.3220  -5.5370   0.0000   0.3314
  11.000   2.1110   0.01311   0.00813  -0.2057  0.0011  0.3318  -6.1587   0.0000   0.3274
  11.500   2.1417   0.01371   0.00874  -0.2011  0.0011  0.3390  -6.7313   0.0000   0.3229
  12.000   2.1704   0.01441   0.00945  -0.1963  0.0010  0.3399  -7.3127   0.0000   0.3184
  12.500   2.1999   0.01523   0.01030  -0.1920  0.0010  0.3694  -7.9212   0.0000   0.3142
  13.000   2.2271   0.01621   0.01130  -0.1874  0.0009  0.3827  -8.5346   0.0000   0.3100
  14.000   2.2467   0.02054   0.01588  -0.1739  0.0018  0.4542  -9.5020   0.0000   0.3011
  14.500   2.2620   0.02258   0.01796  -0.1688  0.0019  0.4656  -10.0839   0.0000   0.2972
  15.000   2.2815   0.02467   0.02010  -0.1648  0.0024  0.4979  -10.7166   0.0000   0.2936
  15.500   2.2965   0.02729   0.02278  -0.1608  0.0029  0.5257  -11.3115   0.0000   0.2902
  16.000   2.3090   0.03029   0.02585  -0.1569  0.0033  0.5438  -11.8980   0.0000   0.2869
  16.500   2.3195   0.03370   0.02932  -0.1533  0.0037  0.5651  -12.4805   0.0000   0.2838
  17.000   2.3275   0.03755   0.03325  -0.1501  0.0040  0.5964  -13.0520   0.0000   0.2808
  17.500   2.3317   0.04180   0.03760  -0.1469  0.0044  0.6279  -13.5989   0.0000   0.2780
  18.000   2.3336   0.04670   0.04257  -0.1442  0.0046  0.6442  -14.1359   0.0000   0.2754
  18.500   2.3343   0.05211   0.04806  -0.1420  0.0046  0.6665  -14.6718   0.0000   0.2731
  19.000   2.3419   0.05685   0.05288  -0.1404  0.0046  0.6987  -15.2834   0.0000   0.2707
  19.500   2.3373   0.06333   0.05947  -0.1390  0.0047  0.7332  -15.7840   0.0000   0.2688
  20.000   2.3286   0.07059   0.06684  -0.1383  0.0047  0.7695  -16.2468   0.0000   0.2671


