XFLR5 v6.02 Beta

 Calculated polar for: WORTMANN FX 63-137

 1 1 Reynolds number fixed          Mach number fixed         

 xtrf =   1.000 (top)        1.000 (bottom)
 Mach =   0.000     Re =    77.750 e 6     Ncrit =   9.000

  alpha     CL        CD       CDp       CM    Top Xtr Bot Xtr   Cpmin    Chinge    XCp    
 ------- -------- --------- --------- -------- ------- ------- -------- --------- ---------
 -22.500  -1.2836   0.05171   0.04852  -0.1549  0.4013  0.0014  -28.9881   0.0000   0.0922
 -22.000  -1.3172   0.04182   0.03853  -0.1627  0.4013  0.0014  -29.2449   0.0000   0.0913
 -21.000  -1.3320   0.02944   0.02600  -0.1722  0.4012  0.0014  -28.6916   0.0000   0.0889
 -20.500  -1.3224   0.02539   0.02190  -0.1749  0.4012  0.0014  -28.0943   0.0000   0.0872
 -20.000  -1.3097   0.02159   0.01805  -0.1775  0.4011  0.0014  -27.4456   0.0000   0.0853
 -19.500  -1.2944   0.01872   0.01514  -0.1784  0.4010  0.0014  -26.7344   0.0000   0.0843
 -19.000  -1.2550   0.01630   0.01264  -0.1826  0.3703  0.0014  -25.7202   0.0000   0.0776
 -18.500  -1.2007   0.01429   0.01056  -0.1885  0.3651  0.0014  -24.5333   0.0000   0.0668
 -18.000  -1.1503   0.01341   0.00957  -0.1899  0.2994  0.0015  -23.3714   0.0000   0.0595
 -17.500  -1.0967   0.01262   0.00874  -0.1912  0.2914  0.0015  -22.1911   0.0000   0.0508
 -17.000  -1.0419   0.01192   0.00801  -0.1924  0.2841  0.0016  -21.0199   0.0000   0.0410
 -16.500  -0.9861   0.01129   0.00736  -0.1935  0.2787  0.0017  -19.8639   0.0000   0.0298
 -16.000  -0.9294   0.01072   0.00676  -0.1945  0.2782  0.0018  -18.7270   0.0000   0.0171
 -15.500  -0.8722   0.01020   0.00622  -0.1956  0.2779  0.0019  -17.6121   0.0000   0.0024
 -15.000  -0.8156   0.00979   0.00572  -0.1963  0.2277  0.0020  -16.5340   0.0000  -0.0139
 -14.500  -0.7575   0.00935   0.00526  -0.1973  0.2214  0.0021  -15.4695   0.0000  -0.0336
 -13.500  -0.6408   0.00863   0.00444  -0.1990  0.1890  0.0023  -13.5110   0.0000  -0.0841
 -13.000  -0.5818   0.00829   0.00408  -0.1999  0.1784  0.0024  -12.6138   0.0000  -0.1176
 -12.000  -0.4634   0.00771   0.00341  -0.2017  0.1412  0.0028  -10.8971   0.0000  -0.2111
 -11.500  -0.4036   0.00741   0.00310  -0.2026  0.1425  0.0032  -10.0741   0.0000  -0.2797
 -11.000  -0.3438   0.00717   0.00283  -0.2035  0.1389  0.0035  -9.2786   0.0000  -0.3721
 -10.500  -0.2839   0.00695   0.00259  -0.2044  0.1342  0.0038  -8.5086   0.0000  -0.5039
 -10.000  -0.2239   0.00676   0.00238  -0.2052  0.1295  0.0040  -7.7654   0.0000  -0.7064
  -9.500  -0.1641   0.00661   0.00221  -0.2060  0.1245  0.0040  -7.0531   0.0000  -1.0563
  -9.000  -0.1042   0.00648   0.00206  -0.2068  0.1236  0.0041  -6.3710   0.0000  -1.8081
  -8.500  -0.0443   0.00636   0.00193  -0.2075  0.1233  0.0041  -5.7168   0.0000  -4.5916
  -8.000   0.0155   0.00626   0.00181  -0.2082  0.1229  0.0042  -5.0924   0.0000  14.1135
  -7.500   0.0753   0.00617   0.00171  -0.2089  0.1228  0.0042  -4.4978   0.0000   3.1060
  -7.000   0.1346   0.00614   0.00163  -0.2095  0.1023  0.0043  -4.0410   0.0000   1.8495
  -6.500   0.1941   0.00609   0.00156  -0.2102  0.0996  0.0043  -3.6493   0.0000   1.3599
  -6.000   0.2536   0.00605   0.00150  -0.2108  0.0968  0.0043  -3.2729   0.0000   1.1002
  -5.500   0.3131   0.00602   0.00146  -0.2114  0.0943  0.0044  -2.9116   0.0000   0.9393
  -5.000   0.3725   0.00601   0.00142  -0.2120  0.0906  0.0044  -2.5658   0.0000   0.8299
  -4.500   0.4317   0.00600   0.00140  -0.2126  0.0844  0.0044  -2.2357   0.0000   0.7505
  -4.000   0.4910   0.00600   0.00139  -0.2131  0.0842  0.0045  -1.9208   0.0000   0.6904
  -3.500   0.5500   0.00601   0.00139  -0.2137  0.0841  0.0045  -1.6222   0.0000   0.6432
  -3.000   0.6090   0.00602   0.00140  -0.2142  0.0840  0.0046  -1.3393   0.0000   0.6052
  -2.500   0.6678   0.00605   0.00142  -0.2147  0.0838  0.0046  -1.0720   0.0000   0.5739
  -2.000   0.7247   0.00624   0.00151  -0.2148  0.0457  0.0046  -0.9635   0.0000   0.5478
  -1.500   0.7830   0.00631   0.00156  -0.2152  0.0429  0.0053  -1.0141   0.0000   0.5254
  -1.000   0.8411   0.00639   0.00162  -0.2156  0.0407  0.0061  -1.0665   0.0000   0.5060
  -0.500   0.8990   0.00647   0.00169  -0.2160  0.0386  0.0068  -1.1192   0.0000   0.4891
   0.000   0.9568   0.00656   0.00177  -0.2163  0.0381  0.0073  -1.1722   0.0000   0.4742
   0.500   1.0143   0.00666   0.00186  -0.2166  0.0381  0.0091  -1.2274   0.0000   0.4610
   1.000   1.0720   0.00675   0.00195  -0.2170  0.0382  0.0169  -1.2928   0.0000   0.4491
   1.500   1.1290   0.00687   0.00206  -0.2172  0.0382  0.0171  -1.3687   0.0000   0.4384
   2.000   1.1839   0.00717   0.00228  -0.2170  0.0186  0.0198  -1.4431   0.0000   0.4286
   2.500   1.2389   0.00745   0.00254  -0.2168  0.0013  0.0370  -1.5344   0.0000   0.4196
   3.000   1.2947   0.00764   0.00271  -0.2168  0.0013  0.0379  -1.6507   0.0000   0.4113
   3.500   1.3501   0.00785   0.00289  -0.2168  0.0013  0.0384  -1.7690   0.0000   0.4037
   4.000   1.4052   0.00807   0.00310  -0.2167  0.0013  0.0406  -1.9169   0.0000   0.3966
   4.500   1.4598   0.00830   0.00331  -0.2166  0.0013  0.0460  -2.0961   0.0000   0.3900
   5.000   1.5143   0.00854   0.00355  -0.2165  0.0013  0.0663  -2.2799   0.0000   0.3838
   5.500   1.5681   0.00881   0.00380  -0.2162  0.0013  0.0708  -2.4676   0.0000   0.3779
   6.000   1.6217   0.00907   0.00408  -0.2159  0.0012  0.1035  -2.6597   0.0000   0.3724
   6.500   1.6744   0.00937   0.00436  -0.2155  0.0012  0.1133  -2.8552   0.0000   0.3671
   7.000   1.7267   0.00969   0.00467  -0.2150  0.0012  0.1243  -3.0545   0.0000   0.3621
   7.500   1.7784   0.01001   0.00500  -0.2145  0.0012  0.1458  -3.2573   0.0000   0.3572
   8.000   1.8291   0.01037   0.00534  -0.2137  0.0012  0.1457  -3.4628   0.0000   0.3526
   8.500   1.8790   0.01075   0.00571  -0.2128  0.0012  0.1486  -3.6710   0.0000   0.3481
   9.000   1.9286   0.01114   0.00612  -0.2120  0.0012  0.2027  -3.9526   0.0000   0.3438
  10.000   2.0239   0.01201   0.00701  -0.2096  0.0012  0.2641  -4.9360   0.0000   0.3355
  10.500   2.0699   0.01249   0.00753  -0.2081  0.0011  0.3158  -5.5474   0.0000   0.3315
  11.000   2.1128   0.01303   0.00806  -0.2060  0.0011  0.3258  -6.1703   0.0000   0.3275
  11.500   2.1448   0.01362   0.00866  -0.2018  0.0011  0.3330  -6.7521   0.0000   0.3230
  12.000   2.1735   0.01431   0.00935  -0.1969  0.0010  0.3339  -7.3342   0.0000   0.3185
  12.500   2.2022   0.01512   0.01019  -0.1924  0.0010  0.3449  -7.9380   0.0000   0.3142
  13.000   2.2302   0.01608   0.01118  -0.1879  0.0009  0.3713  -8.5580   0.0000   0.3101
  14.000   2.2485   0.02043   0.01577  -0.1741  0.0020  0.4460  -9.5341   0.0000   0.3011
  14.500   2.2687   0.02216   0.01753  -0.1697  0.0021  0.4565  -10.1494   0.0000   0.2973
  15.000   2.2848   0.02442   0.01985  -0.1652  0.0026  0.4851  -10.7431   0.0000   0.2937
  15.500   2.2993   0.02704   0.02254  -0.1610  0.0030  0.5123  -11.3348   0.0000   0.2902
  16.000   2.3119   0.03005   0.02561  -0.1571  0.0035  0.5325  -11.9220   0.0000   0.2869
  17.000   2.3305   0.03722   0.03293  -0.1502  0.0041  0.5842  -13.0783   0.0000   0.2808
  17.500   2.3352   0.04140   0.03719  -0.1471  0.0045  0.6152  -13.6311   0.0000   0.2780
  18.000   2.3373   0.04629   0.04216  -0.1444  0.0046  0.6306  -14.1719   0.0000   0.2754
  18.500   2.3392   0.05150   0.04746  -0.1422  0.0046  0.6564  -14.7202   0.0000   0.2730
  19.000   2.3460   0.05635   0.05238  -0.1405  0.0047  0.6893  -15.3254   0.0000   0.2707
  19.500   2.3409   0.06284   0.05898  -0.1391  0.0047  0.7167  -15.8207   0.0000   0.2687
  20.000   2.3319   0.07006   0.06630  -0.1382  0.0047  0.7479  -16.2826   0.0000   0.2670
  20.500   2.3193   0.07790   0.07426  -0.1378  0.0047  0.7769  -16.7082   0.0000   0.2656
  21.000   2.3015   0.08625   0.08273  -0.1379  0.0047  0.8038  -17.0799   0.0000   0.2645


