XFLR5 v6.02 Beta

 Calculated polar for: WORTMANN FX 63-137

 1 1 Reynolds number fixed          Mach number fixed         

 xtrf =   1.000 (top)        1.000 (bottom)
 Mach =   0.000     Re =    42.750 e 6     Ncrit =   9.000

  alpha     CL        CD       CDp       CM    Top Xtr Bot Xtr   Cpmin    Chinge    XCp    
 ------- -------- --------- --------- -------- ------- ------- -------- --------- ---------
 -21.500  -1.2010   0.05056   0.04733  -0.1537  0.4934  0.0017  -26.6508   0.0000   0.0866
 -21.000  -1.2312   0.04091   0.03755  -0.1614  0.4841  0.0017  -26.8528   0.0000   0.0855
 -20.500  -1.2462   0.03362   0.03016  -0.1672  0.4709  0.0018  -26.7380   0.0000   0.0842
 -20.000  -1.2428   0.02878   0.02525  -0.1707  0.4669  0.0018  -26.2799   0.0000   0.0825
 -19.500  -1.2355   0.02432   0.02072  -0.1740  0.4662  0.0019  -25.7506   0.0000   0.0805
 -19.000  -1.2189   0.02103   0.01739  -0.1757  0.4658  0.0019  -25.0613   0.0000   0.0784
 -18.500  -1.1945   0.01814   0.01446  -0.1784  0.4656  0.0020  -24.2744   0.0000   0.0743
 -18.000  -1.1486   0.01574   0.01193  -0.1839  0.4289  0.0021  -23.2316   0.0000   0.0644
 -17.500  -1.0966   0.01430   0.01032  -0.1876  0.3559  0.0022  -22.1077   0.0000   0.0540
 -17.000  -1.0435   0.01334   0.00931  -0.1893  0.3455  0.0023  -20.9692   0.0000   0.0442
 -16.500  -0.9888   0.01251   0.00844  -0.1908  0.3389  0.0024  -19.8356   0.0000   0.0332
 -16.000  -0.9330   0.01177   0.00767  -0.1921  0.3380  0.0025  -18.7150   0.0000   0.0206
 -15.000  -0.8189   0.01049   0.00634  -0.1945  0.3375  0.0028  -16.5287   0.0000  -0.0106
 -14.000  -0.7052   0.00963   0.00527  -0.1962  0.2448  0.0032  -14.4623   0.0000  -0.0512
 -13.500  -0.6468   0.00923   0.00482  -0.1971  0.2269  0.0033  -13.5377   0.0000  -0.0781
 -13.000  -0.5877   0.00884   0.00440  -0.1982  0.2218  0.0035  -12.6356   0.0000  -0.1109
 -12.500  -0.5290   0.00852   0.00403  -0.1990  0.2001  0.0037  -11.7613   0.0000  -0.1507
 -12.000  -0.4700   0.00825   0.00369  -0.1998  0.1702  0.0038  -10.9121   0.0000  -0.2008
 -11.500  -0.4104   0.00798   0.00340  -0.2007  0.1702  0.0039  -10.0836   0.0000  -0.2663
 -11.000  -0.3507   0.00775   0.00314  -0.2016  0.1698  0.0039  -9.2863   0.0000  -0.3544
 -10.500  -0.2909   0.00753   0.00290  -0.2025  0.1693  0.0040  -8.5174   0.0000  -0.4789
  -9.500  -0.1718   0.00721   0.00250  -0.2040  0.1439  0.0041  -7.0709   0.0000  -0.9853
  -9.000  -0.1122   0.00708   0.00232  -0.2047  0.1336  0.0041  -6.3924   0.0000  -1.6428
  -8.500  -0.0524   0.00695   0.00217  -0.2055  0.1285  0.0041  -5.7392   0.0000  -3.8094
  -8.000   0.0075   0.00683   0.00203  -0.2063  0.1241  0.0042  -5.1153   0.0000  28.7673
  -7.500   0.0673   0.00673   0.00191  -0.2070  0.1238  0.0042  -4.5210   0.0000   3.4174
  -7.000   0.1271   0.00664   0.00181  -0.2077  0.1236  0.0043  -4.0495   0.0000   1.9292
  -6.500   0.1868   0.00657   0.00172  -0.2084  0.1233  0.0043  -3.6582   0.0000   1.3937
  -6.000   0.2465   0.00651   0.00165  -0.2091  0.1229  0.0043  -3.2821   0.0000   1.1179
  -5.500   0.3061   0.00647   0.00159  -0.2097  0.1224  0.0044  -2.9213   0.0000   0.9497
  -5.000   0.3647   0.00650   0.00157  -0.2102  0.1016  0.0044  -2.5779   0.0000   0.8372
  -4.500   0.4239   0.00650   0.00154  -0.2108  0.0986  0.0045  -2.2488   0.0000   0.7556
  -4.000   0.4828   0.00651   0.00153  -0.2113  0.0907  0.0045  -1.9355   0.0000   0.6940
  -3.500   0.5419   0.00653   0.00153  -0.2119  0.0858  0.0046  -1.6372   0.0000   0.6458
  -3.000   0.6008   0.00655   0.00154  -0.2124  0.0843  0.0050  -1.3545   0.0000   0.6070
  -2.500   0.6595   0.00658   0.00156  -0.2129  0.0841  0.0048  -1.0866   0.0000   0.5751
  -2.000   0.7181   0.00662   0.00159  -0.2134  0.0838  0.0057  -0.9596   0.0000   0.5485
  -1.500   0.7750   0.00680   0.00169  -0.2135  0.0592  0.0070  -1.0088   0.0000   0.5260
  -0.500   0.8906   0.00699   0.00184  -0.2142  0.0484  0.0089  -1.1134   0.0000   0.4893
   0.000   0.9481   0.00711   0.00194  -0.2144  0.0457  0.0096  -1.1660   0.0000   0.4743
   0.500   1.0055   0.00722   0.00204  -0.2147  0.0431  0.0157  -1.2205   0.0000   0.4610
   1.000   1.0629   0.00732   0.00214  -0.2150  0.0458  0.0170  -1.2850   0.0000   0.4490
   1.500   1.1197   0.00746   0.00226  -0.2152  0.0444  0.0172  -1.3604   0.0000   0.4382
   2.000   1.1763   0.00760   0.00240  -0.2154  0.0426  0.0195  -1.4365   0.0000   0.4284
   2.500   1.2288   0.00809   0.00278  -0.2147  0.0023  0.0373  -1.5236   0.0000   0.4193
   3.500   1.3393   0.00853   0.00318  -0.2146  0.0014  0.0420  -1.7550   0.0000   0.4034
   4.000   1.3939   0.00877   0.00340  -0.2144  0.0016  0.0454  -1.8976   0.0000   0.3962
   4.500   1.4483   0.00902   0.00365  -0.2142  0.0013  0.0540  -2.0755   0.0000   0.3896
   5.000   1.5021   0.00929   0.00391  -0.2140  0.0013  0.0670  -2.2576   0.0000   0.3833
   5.500   1.5554   0.00958   0.00419  -0.2136  0.0013  0.0806  -2.4437   0.0000   0.3774
   6.000   1.6086   0.00987   0.00450  -0.2133  0.0012  0.1220  -2.6342   0.0000   0.3719
   6.500   1.6610   0.01019   0.00483  -0.2128  0.0012  0.1461  -2.8281   0.0000   0.3666
   7.000   1.7123   0.01054   0.00517  -0.2122  0.0012  0.1589  -3.0249   0.0000   0.3615
   7.500   1.7635   0.01089   0.00554  -0.2116  0.0012  0.1943  -3.2257   0.0000   0.3567
   8.000   1.8125   0.01131   0.00592  -0.2105  0.0012  0.1696  -3.4273   0.0000   0.3519
   8.500   1.8620   0.01171   0.00636  -0.2096  0.0012  0.2222  -3.6336   0.0000   0.3474
   9.000   1.9102   0.01215   0.00682  -0.2085  0.0012  0.2697  -3.8994   0.0000   0.3431
   9.500   1.9571   0.01261   0.00732  -0.2071  0.0012  0.3074  -4.2365   0.0000   0.3388
  10.000   2.0037   0.01310   0.00789  -0.2059  0.0011  0.3984  -4.8125   0.0000   0.3348
  10.500   2.0460   0.01366   0.00847  -0.2037  0.0011  0.4211  -5.3954   0.0000   0.3306
  11.000   2.0743   0.01430   0.00913  -0.1986  0.0011  0.4332  -5.9218   0.0000   0.3258
  11.500   2.1036   0.01506   0.00990  -0.1940  0.0011  0.4350  -6.4771   0.0000   0.3213
  12.000   2.1334   0.01594   0.01079  -0.1897  0.0010  0.4374  -7.0562   0.0000   0.3170
  12.500   2.1622   0.01693   0.01183  -0.1856  0.0010  0.4778  -7.6497   0.0000   0.3128
  13.000   2.1902   0.01809   0.01304  -0.1815  0.0010  0.5131  -8.2580   0.0000   0.3088
  13.500   2.2156   0.01945   0.01443  -0.1773  0.0009  0.5280  -8.8685   0.0000   0.3049
  14.000   2.2387   0.02107   0.01610  -0.1731  0.0009  0.5616  -9.4804   0.0000   0.3010
  14.500   2.2591   0.02293   0.01804  -0.1690  0.0009  0.6104  -10.0892   0.0000   0.2973
  15.000   2.2786   0.02509   0.02026  -0.1651  0.0008  0.6373  -10.7078   0.0000   0.2938
  15.500   2.2963   0.02758   0.02282  -0.1614  0.0008  0.6730  -11.3297   0.0000   0.2904
  16.500   2.2690   0.03868   0.03425  -0.1500  0.0015  0.7179  -11.9983   0.0000   0.2837
  17.000   2.2745   0.04304   0.03872  -0.1471  0.0018  0.7550  -12.5509   0.0000   0.2810
  17.500   2.2822   0.04773   0.04351  -0.1452  0.0021  0.8108  -13.1511   0.0000   0.2786
  18.000   2.2918   0.05348   0.04955  -0.1449  0.0027  1.0000  -13.7532   0.0000   0.2767
  18.500   2.2875   0.05984   0.05599  -0.1431  0.0030  1.0000  -14.2303   0.0000   0.2746
  19.000   2.2919   0.06511   0.06131  -0.1417  0.0033  1.0000  -14.7974   0.0000   0.2724
  19.500   2.2819   0.07248   0.06877  -0.1408  0.0036  1.0000  -15.2293   0.0000   0.2708


