XFLR5 v6.02 Beta

 Calculated polar for: WORTMANN FX 63-137

 1 1 Reynolds number fixed          Mach number fixed         

 xtrf =   1.000 (top)        1.000 (bottom)
 Mach =   0.000     Re =     5.900 e 6     Ncrit =   9.000

  alpha     CL        CD       CDp       CM    Top Xtr Bot Xtr   Cpmin    Chinge    XCp    
 ------- -------- --------- --------- -------- ------- ------- -------- --------- ---------
 -16.500  -0.7676   0.04627   0.04386  -0.1474  0.8781  0.0040  -15.4492   0.0000   0.0286
 -16.000  -0.7987   0.03443   0.03160  -0.1591  0.8172  0.0040  -15.7646   0.0000   0.0239
 -15.500  -0.7991   0.02809   0.02498  -0.1649  0.7787  0.0041  -15.5191   0.0000   0.0184
 -15.000  -0.7915   0.02352   0.02021  -0.1682  0.7484  0.0041  -15.1196   0.0000   0.0137
 -14.500  -0.7576   0.01988   0.01638  -0.1742  0.7219  0.0042  -14.4402   0.0000  -0.0030
 -14.000  -0.7041   0.01695   0.01331  -0.1820  0.7158  0.0042  -13.5698   0.0000  -0.0314
 -13.500  -0.6516   0.01540   0.01158  -0.1852  0.6882  0.0043  -12.6867   0.0000  -0.0572
 -13.000  -0.5984   0.01435   0.01038  -0.1871  0.6574  0.0043  -11.8007   0.0000  -0.0858
 -12.500  -0.5461   0.01372   0.00955  -0.1880  0.5995  0.0044  -10.9323   0.0000  -0.1178
  -5.000   0.3319   0.00858   0.00246  -0.2026  0.2206  0.0055  -2.2370   0.0000   0.8723
  -4.000   0.4508   0.00849   0.00214  -0.2040  0.1873  0.0049  -1.7611   0.0000   0.7093
  -3.500   0.5108   0.00843   0.00201  -0.2048  0.1778  0.0047  -1.6055   0.0000   0.6559
  -3.000   0.5705   0.00838   0.00199  -0.2056  0.1701  0.0148  -1.3933   0.0000   0.6139
  -2.500   0.6290   0.00841   0.00200  -0.2061  0.1671  0.0154  -1.1183   0.0000   0.5800
  -2.000   0.6848   0.00868   0.00211  -0.2061  0.1315  0.0154  -0.9387   0.0000   0.5523
  -1.500   0.7428   0.00875   0.00216  -0.2065  0.1243  0.0159  -0.9869   0.0000   0.5285
  -1.000   0.8007   0.00882   0.00222  -0.2068  0.1233  0.0162  -1.0387   0.0000   0.5080
  -0.500   0.8581   0.00892   0.00231  -0.2072  0.1204  0.0164  -1.0907   0.0000   0.4903
   0.000   0.9135   0.00920   0.00250  -0.2071  0.1000  0.0167  -1.1414   0.0000   0.4748
   1.500   1.0823   0.00970   0.00294  -0.2074  0.0852  0.0247  -1.3260   0.0000   0.4376
   2.000   1.1385   0.00986   0.00313  -0.2075  0.0841  0.0370  -1.4012   0.0000   0.4276
   2.500   1.1901   0.01037   0.00353  -0.2068  0.0534  0.0449  -1.4825   0.0000   0.4184
   3.000   1.2446   0.01064   0.00381  -0.2066  0.0477  0.0688  -1.5802   0.0000   0.4099
   3.500   1.2978   0.01097   0.00412  -0.2062  0.0414  0.0833  -1.6982   0.0000   0.4021
   4.000   1.3518   0.01122   0.00440  -0.2060  0.0408  0.1033  -1.8237   0.0000   0.3948
   4.500   1.4052   0.01151   0.00472  -0.2057  0.0373  0.1450  -1.9984   0.0000   0.3881
   5.000   1.4560   0.01199   0.00519  -0.2050  0.0261  0.2001  -2.1778   0.0000   0.3817
   6.500   1.6065   0.01355   0.00708  -0.2029  0.0020  0.4910  -2.7175   0.0000   0.3648
   7.000   1.6538   0.01406   0.00763  -0.2016  0.0015  0.5229  -2.9030   0.0000   0.3596
   7.500   1.6986   0.01464   0.00821  -0.1998  0.0013  0.5371  -3.0882   0.0000   0.3544
   8.000   1.7389   0.01526   0.00886  -0.1971  0.0013  0.5559  -3.2687   0.0000   0.3493
   8.500   1.7727   0.01596   0.00959  -0.1932  0.0013  0.5652  -3.4399   0.0000   0.3440
   9.000   1.8076   0.01674   0.01047  -0.1897  0.0013  0.6161  -3.6162   0.0000   0.3391
   9.500   1.8409   0.01766   0.01146  -0.1861  0.0012  0.6557  -3.8425   0.0000   0.3343
  10.000   1.8720   0.01873   0.01260  -0.1823  0.0012  0.6893  -4.0755   0.0000   0.3297
  10.500   1.9004   0.02000   0.01395  -0.1783  0.0012  0.7134  -4.4679   0.0000   0.3252
  11.000   1.9273   0.02150   0.01554  -0.1744  0.0012  0.7483  -4.9115   0.0000   0.3208
  11.500   1.9518   0.02332   0.01751  -0.1705  0.0012  0.8001  -5.3180   0.0000   0.3167
  14.000   2.0477   0.03614   0.03087  -0.1535  0.0010  1.0000  -7.8606   0.0000   0.2987
  14.500   2.0609   0.03971   0.03451  -0.1507  0.0009  1.0000  -8.3600   0.0000   0.2957
  15.000   2.0689   0.04385   0.03875  -0.1478  0.0009  1.0000  -8.8292   0.0000   0.2928
  15.500   2.0753   0.04853   0.04352  -0.1453  0.0009  1.0000  -9.2963   0.0000   0.2901
  16.000   2.0779   0.05391   0.04903  -0.1432  0.0009  1.0000  -9.7198   0.0000   0.2877
  16.500   2.0793   0.05969   0.05491  -0.1415  0.0009  1.0000  -10.1642   0.0000   0.2855
  17.000   2.0800   0.06572   0.06105  -0.1403  0.0009  1.0000  -10.6142   0.0000   0.2836
  17.500   2.0810   0.07177   0.06721  -0.1393  0.0008  1.0000  -11.0754   0.0000   0.2817
  18.000   2.0773   0.07858   0.07413  -0.1388  0.0008  1.0000  -11.4998   0.0000   0.2802
  18.500   2.0668   0.08626   0.08195  -0.1388  0.0008  1.0000  -11.8647   0.0000   0.2791
  19.000   2.0552   0.09453   0.09035  -0.1393  0.0008  1.0000  -12.2179   0.0000   0.2782
  19.500   2.0430   0.10305   0.09902  -0.1405  0.0008  1.0000  -12.5610   0.0000   0.2777
  20.000   2.0320   0.11146   0.10755  -0.1421  0.0007  1.0000  -12.9398   0.0000   0.2774
  20.500   2.0261   0.11891   0.11511  -0.1438  0.0007  1.0000  -13.3484   0.0000   0.2769


