XFLR5 v6.02 Beta

 Calculated polar for: WORTMANN FX 63-137

 1 1 Reynolds number fixed          Mach number fixed         

 xtrf =   1.000 (top)        1.000 (bottom)
 Mach =   0.000     Re =    16.750 e 6     Ncrit =   9.000

  alpha     CL        CD       CDp       CM    Top Xtr Bot Xtr   Cpmin    Chinge    XCp    
 ------- -------- --------- --------- -------- ------- ------- -------- --------- ---------
 -20.000  -1.1169   0.04402   0.04106  -0.1550  0.7343  0.0032  -23.9400   0.0000   0.0790
 -19.500  -1.1323   0.03587   0.03276  -0.1622  0.7204  0.0032  -23.8879   0.0000   0.0763
 -19.000  -1.1310   0.03019   0.02693  -0.1672  0.6935  0.0032  -23.5196   0.0000   0.0733
 -18.500  -1.1216   0.02573   0.02230  -0.1708  0.6603  0.0033  -22.9986   0.0000   0.0702
 -18.000  -1.1052   0.02206   0.01856  -0.1734  0.6582  0.0033  -22.3619   0.0000   0.0668
 -17.500  -1.0791   0.01912   0.01556  -0.1762  0.6565  0.0034  -21.5953   0.0000   0.0614
 -17.000  -1.0362   0.01672   0.01299  -0.1810  0.6152  0.0034  -20.6378   0.0000   0.0508
 -16.500  -0.9851   0.01508   0.01111  -0.1855  0.5394  0.0035  -19.5876   0.0000   0.0378
 -16.000  -0.9317   0.01406   0.01001  -0.1875  0.5297  0.0035  -18.5031   0.0000   0.0253
 -15.500  -0.8786   0.01329   0.00912  -0.1887  0.4951  0.0036  -17.4427   0.0000   0.0121
 -15.000  -0.8235   0.01259   0.00833  -0.1900  0.4789  0.0036  -16.3865   0.0000  -0.0036
 -14.500  -0.7669   0.01193   0.00762  -0.1912  0.4666  0.0037  -15.3408   0.0000  -0.0222
 -14.000  -0.7110   0.01142   0.00700  -0.1921  0.4336  0.0037  -14.3313   0.0000  -0.0431
 -13.500  -0.6569   0.01109   0.00643  -0.1926  0.3428  0.0038  -13.3731   0.0000  -0.0661
 -13.000  -0.5985   0.01061   0.00590  -0.1937  0.3377  0.0038  -12.3976   0.0000  -0.0970
 -12.500  -0.5398   0.01017   0.00542  -0.1948  0.3368  0.0039  -11.4950   0.0000  -0.1349
 -12.000  -0.4822   0.00987   0.00500  -0.1956  0.3015  0.0039  -10.6366   0.0000  -0.1805
 -11.500  -0.4234   0.00956   0.00463  -0.1965  0.2935  0.0040  -9.7556   0.0000  -0.2403
 -11.000  -0.3641   0.00922   0.00424  -0.1975  0.2785  0.0041  -8.9371   0.0000  -0.3207
 -10.500  -0.3063   0.00903   0.00391  -0.1981  0.2256  0.0041  -8.1634   0.0000  -0.4283
 -10.000  -0.2464   0.00873   0.00357  -0.1992  0.2212  0.0042  -7.4116   0.0000  -0.5944
  -9.500  -0.1863   0.00846   0.00326  -0.2002  0.2200  0.0042  -6.7060   0.0000  -0.8685
  -9.000  -0.1274   0.00831   0.00298  -0.2009  0.1848  0.0042  -6.0801   0.0000  -1.3864
  -8.500  -0.0674   0.00810   0.00274  -0.2018  0.1760  0.0043  -5.4325   0.0000  -2.8473
  -8.000  -0.0073   0.00791   0.00252  -0.2027  0.1701  0.0043  -4.8189   0.0000  -28.3296
  -7.500   0.0528   0.00775   0.00232  -0.2036  0.1692  0.0044  -4.2781   0.0000   4.2211
  -5.500   0.2913   0.00744   0.00188  -0.2063  0.1363  0.0044  -2.8804   0.0000   0.9733
  -5.000   0.3509   0.00738   0.00181  -0.2070  0.1309  0.0045  -2.5463   0.0000   0.8512
  -2.500   0.6447   0.00751   0.00181  -0.2096  0.0969  0.0088  -1.1114   0.0000   0.5775
  -2.000   0.7030   0.00757   0.00184  -0.2100  0.0912  0.0089  -0.9501   0.0000   0.5502
  -1.500   0.7615   0.00762   0.00189  -0.2105  0.0878  0.0146  -0.9997   0.0000   0.5270
  -1.000   0.8195   0.00769   0.00195  -0.2109  0.0843  0.0153  -1.0518   0.0000   0.5071
  -0.500   0.8772   0.00778   0.00204  -0.2113  0.0836  0.0156  -1.1041   0.0000   0.4897
   0.000   0.9347   0.00789   0.00213  -0.2116  0.0829  0.0158  -1.1567   0.0000   0.4745
   0.500   0.9919   0.00800   0.00224  -0.2118  0.0817  0.0162  -1.2101   0.0000   0.4610
   1.000   1.0493   0.00810   0.00233  -0.2121  0.0831  0.0172  -1.2731   0.0000   0.4489
   1.500   1.1060   0.00823   0.00246  -0.2123  0.0822  0.0184  -1.3483   0.0000   0.4380
   2.000   1.1601   0.00857   0.00271  -0.2120  0.0628  0.0241  -1.4220   0.0000   0.4281
   2.500   1.2140   0.00893   0.00301  -0.2117  0.0372  0.0380  -1.5089   0.0000   0.4190
   3.000   1.2650   0.00950   0.00345  -0.2108  0.0040  0.0416  -1.6135   0.0000   0.4105
   3.500   1.3194   0.00977   0.00371  -0.2105  0.0033  0.0514  -1.7294   0.0000   0.4027
   4.000   1.3737   0.01002   0.00397  -0.2104  0.0039  0.0660  -1.8625   0.0000   0.3955
   4.500   1.4268   0.01034   0.00427  -0.2099  0.0031  0.0705  -2.0373   0.0000   0.3888
   5.000   1.4799   0.01064   0.00459  -0.2096  0.0024  0.1014  -2.2170   0.0000   0.3825
   5.500   1.5320   0.01098   0.00493  -0.2090  0.0017  0.1169  -2.3995   0.0000   0.3765
   6.000   1.5852   0.01129   0.00532  -0.2088  0.0013  0.2062  -2.5881   0.0000   0.3710
   6.500   1.6367   0.01165   0.00572  -0.2082  0.0013  0.2493  -2.7791   0.0000   0.3657
   7.000   1.6877   0.01203   0.00615  -0.2076  0.0012  0.3064  -2.9736   0.0000   0.3606
   7.500   1.7381   0.01243   0.00663  -0.2069  0.0012  0.3762  -3.1713   0.0000   0.3558
   8.000   1.7831   0.01298   0.00709  -0.2050  0.0012  0.3170  -3.3636   0.0000   0.3508
   8.500   1.8325   0.01341   0.00766  -0.2042  0.0012  0.4338  -3.5677   0.0000   0.3464
   9.000   1.8767   0.01397   0.00824  -0.2024  0.0012  0.4596  -3.8017   0.0000   0.3419
   9.500   1.9139   0.01458   0.00888  -0.1991  0.0012  0.4843  -4.0532   0.0000   0.3371
  10.000   1.9471   0.01526   0.00963  -0.1952  0.0011  0.5299  -4.4792   0.0000   0.3324
  10.500   1.9780   0.01608   0.01047  -0.1909  0.0011  0.5365  -4.9789   0.0000   0.3277
  11.000   2.0096   0.01700   0.01144  -0.1871  0.0011  0.5651  -5.5033   0.0000   0.3233
  11.500   2.0382   0.01809   0.01260  -0.1829  0.0011  0.6001  -6.0317   0.0000   0.3190
  12.000   2.0660   0.01936   0.01392  -0.1790  0.0011  0.6379  -6.5754   0.0000   0.3148
  12.500   2.0930   0.02081   0.01546  -0.1752  0.0010  0.6814  -7.1481   0.0000   0.3108
  13.000   2.1168   0.02250   0.01720  -0.1712  0.0010  0.7061  -7.7088   0.0000   0.3069
  13.500   2.1388   0.02444   0.01923  -0.1674  0.0009  0.7461  -8.2743   0.0000   0.3032
  14.000   2.1605   0.02669   0.02158  -0.1640  0.0009  0.8012  -8.8545   0.0000   0.2997
  14.500   2.1848   0.02917   0.02433  -0.1617  0.0009  1.0000  -9.4714   0.0000   0.2966
  15.000   2.2006   0.03208   0.02729  -0.1583  0.0009  1.0000  -10.0397   0.0000   0.2933
  15.500   2.2142   0.03536   0.03063  -0.1550  0.0008  1.0000  -10.6053   0.0000   0.2901
  16.000   2.2252   0.03902   0.03435  -0.1520  0.0008  1.0000  -11.1642   0.0000   0.2872
  16.500   2.2321   0.04318   0.03857  -0.1491  0.0008  1.0000  -11.7006   0.0000   0.2844
  17.000   2.2374   0.04789   0.04335  -0.1466  0.0008  1.0000  -12.2329   0.0000   0.2818
  17.500   2.2405   0.05310   0.04864  -0.1445  0.0008  1.0000  -12.7555   0.0000   0.2793
  18.000   2.2407   0.05889   0.05451  -0.1428  0.0007  1.0000  -13.2614   0.0000   0.2772
  18.500   2.2481   0.06379   0.05947  -0.1414  0.0007  1.0000  -13.8438   0.0000   0.2749
  19.000   2.2430   0.07051   0.06628  -0.1404  0.0007  1.0000  -14.3133   0.0000   0.2731
  19.500   2.2349   0.07774   0.07362  -0.1398  0.0007  1.0000  -14.7570   0.0000   0.2716
  20.000   2.2219   0.08544   0.08143  -0.1396  0.0006  1.0000  -15.1539   0.0000   0.2704


