XFLR5 v6.02 Beta

 Calculated polar for: WORTMANN FX 63-137

 1 1 Reynolds number fixed          Mach number fixed         

 xtrf =   1.000 (top)        1.000 (bottom)
 Mach =   0.000     Re =    36.500 e 6     Ncrit =   9.000

  alpha     CL        CD       CDp       CM    Top Xtr Bot Xtr   Cpmin    Chinge    XCp    
 ------- -------- --------- --------- -------- ------- ------- -------- --------- ---------
 -21.500  -1.1592   0.05615   0.05302  -0.1487  0.5320  0.0019  -25.8369   0.0000   0.0857
 -21.000  -1.1992   0.04495   0.04169  -0.1576  0.5312  0.0019  -26.2515   0.0000   0.0847
 -20.000  -1.2227   0.03102   0.02751  -0.1685  0.4954  0.0020  -25.9240   0.0000   0.0817
 -19.500  -1.2195   0.02609   0.02251  -0.1722  0.4903  0.0021  -25.4738   0.0000   0.0798
 -19.000  -1.2060   0.02237   0.01871  -0.1746  0.4840  0.0021  -24.8449   0.0000   0.0775
 -18.500  -1.1895   0.01924   0.01553  -0.1763  0.4771  0.0022  -24.1641   0.0000   0.0753
 -18.000  -1.1474   0.01657   0.01280  -0.1815  0.4674  0.0023  -23.1754   0.0000   0.0662
 -17.500  -1.0953   0.01468   0.01073  -0.1868  0.4010  0.0024  -22.0687   0.0000   0.0545
 -17.000  -1.0437   0.01367   0.00962  -0.1885  0.3670  0.0025  -20.9534   0.0000   0.0450
 -16.500  -0.9898   0.01280   0.00869  -0.1900  0.3576  0.0026  -19.8309   0.0000   0.0341
 -16.000  -0.9344   0.01202   0.00787  -0.1914  0.3482  0.0028  -18.7161   0.0000   0.0217
 -15.500  -0.8779   0.01132   0.00714  -0.1927  0.3413  0.0029  -17.6156   0.0000   0.0073
 -15.000  -0.8206   0.01070   0.00648  -0.1939  0.3386  0.0031  -16.5339   0.0000  -0.0093
 -14.500  -0.7643   0.01024   0.00591  -0.1947  0.2945  0.0033  -15.4909   0.0000  -0.0277
 -13.500  -0.6486   0.00942   0.00494  -0.1966  0.2401  0.0035  -13.5328   0.0000  -0.0763
 -13.000  -0.5897   0.00905   0.00453  -0.1975  0.2311  0.0037  -12.6305   0.0000  -0.1087
 -12.500  -0.5305   0.00871   0.00416  -0.1985  0.2220  0.0038  -11.7530   0.0000  -0.1485
 -12.000  -0.4722   0.00848   0.00383  -0.1992  0.1776  0.0038  -10.9104   0.0000  -0.1973
 -11.500  -0.4126   0.00820   0.00353  -0.2001  0.1790  0.0039  -10.0822   0.0000  -0.2619
 -11.000  -0.3530   0.00796   0.00326  -0.2010  0.1719  0.0039  -9.2859   0.0000  -0.3486
 -10.500  -0.2933   0.00773   0.00301  -0.2018  0.1699  0.0040  -8.5174   0.0000  -0.4710
 -10.000  -0.2334   0.00753   0.00278  -0.2027  0.1693  0.0040  -7.7777   0.0000  -0.6565
  -9.500  -0.1735   0.00735   0.00258  -0.2035  0.1687  0.0041  -7.0678   0.0000  -0.9705
  -9.000  -0.1145   0.00725   0.00240  -0.2042  0.1395  0.0041  -6.3944   0.0000  -1.6010
  -8.500  -0.0547   0.00712   0.00224  -0.2049  0.1341  0.0041  -5.7421   0.0000  -3.6292
  -8.000   0.0052   0.00700   0.00210  -0.2057  0.1291  0.0042  -5.1189   0.0000  41.3001
  -7.500   0.0650   0.00689   0.00198  -0.2064  0.1244  0.0042  -4.5252   0.0000   3.5205
  -7.000   0.1248   0.00680   0.00186  -0.2072  0.1239  0.0043  -4.0510   0.0000   1.9556
  -6.500   0.1845   0.00672   0.00177  -0.2079  0.1236  0.0043  -3.6602   0.0000   1.4049
  -6.000   0.2442   0.00666   0.00170  -0.2086  0.1233  0.0043  -3.2846   0.0000   1.1237
  -5.500   0.3038   0.00661   0.00164  -0.2092  0.1228  0.0044  -2.9243   0.0000   0.9531
  -5.000   0.3633   0.00658   0.00159  -0.2099  0.1223  0.0044  -2.5779   0.0000   0.8386
  -4.500   0.4218   0.00663   0.00158  -0.2103  0.1015  0.0045  -2.2517   0.0000   0.7569
  -4.000   0.4806   0.00666   0.00157  -0.2108  0.0959  0.0045  -1.9391   0.0000   0.6950
  -3.500   0.5395   0.00667   0.00157  -0.2113  0.0884  0.0046  -1.6411   0.0000   0.6465
  -3.000   0.5984   0.00670   0.00158  -0.2119  0.0856  0.0053  -1.3586   0.0000   0.6075
  -2.500   0.6571   0.00673   0.00160  -0.2124  0.0842  0.0050  -1.0907   0.0000   0.5755
  -2.000   0.7157   0.00677   0.00163  -0.2128  0.0840  0.0061  -0.9581   0.0000   0.5487
  -1.500   0.7740   0.00683   0.00168  -0.2133  0.0826  0.0075  -1.0083   0.0000   0.5260
  -1.000   0.8307   0.00703   0.00180  -0.2134  0.0590  0.0086  -1.0594   0.0000   0.5065
  -0.500   0.8884   0.00713   0.00188  -0.2137  0.0512  0.0096  -1.1119   0.0000   0.4894
   0.000   0.9460   0.00723   0.00197  -0.2140  0.0486  0.0150  -1.1645   0.0000   0.4744
   0.500   1.0031   0.00737   0.00208  -0.2142  0.0458  0.0158  -1.2186   0.0000   0.4610
   1.000   1.0605   0.00746   0.00218  -0.2145  0.0482  0.0170  -1.2829   0.0000   0.4490
   1.500   1.1172   0.00761   0.00231  -0.2147  0.0467  0.0172  -1.3582   0.0000   0.4382
   2.000   1.1736   0.00777   0.00245  -0.2148  0.0446  0.0201  -1.4341   0.0000   0.4283
   2.500   1.2259   0.00828   0.00285  -0.2141  0.0027  0.0374  -1.5206   0.0000   0.4192
   3.000   1.2812   0.00849   0.00305  -0.2141  0.0020  0.0381  -1.6338   0.0000   0.4109
   3.500   1.3362   0.00872   0.00326  -0.2140  0.0015  0.0434  -1.7510   0.0000   0.4033
   4.000   1.3907   0.00897   0.00349  -0.2138  0.0019  0.0468  -1.8921   0.0000   0.3961
   5.000   1.4987   0.00950   0.00401  -0.2133  0.0013  0.0673  -2.2512   0.0000   0.3832
   5.500   1.5518   0.00980   0.00430  -0.2129  0.0013  0.0838  -2.4369   0.0000   0.3773
   6.000   1.6052   0.01008   0.00463  -0.2127  0.0012  0.1452  -2.6274   0.0000   0.3717
   6.500   1.6569   0.01042   0.00496  -0.2121  0.0012  0.1511  -2.8201   0.0000   0.3664
   7.000   1.7083   0.01078   0.00531  -0.2114  0.0012  0.1703  -3.0166   0.0000   0.3613
   7.500   1.7589   0.01115   0.00570  -0.2107  0.0012  0.1952  -3.2162   0.0000   0.3565
   8.000   1.8081   0.01157   0.00610  -0.2096  0.0012  0.1946  -3.4176   0.0000   0.3518
   8.500   1.8574   0.01198   0.00655  -0.2087  0.0012  0.2587  -3.6233   0.0000   0.3473
   9.000   1.9055   0.01242   0.00704  -0.2076  0.0012  0.3074  -3.8854   0.0000   0.3429
   9.500   1.9509   0.01293   0.00754  -0.2060  0.0011  0.3206  -4.2010   0.0000   0.3386
  10.000   1.9976   0.01341   0.00815  -0.2048  0.0011  0.4326  -4.7756   0.0000   0.3345
  10.500   2.0338   0.01401   0.00875  -0.2013  0.0011  0.4399  -5.3213   0.0000   0.3300
  11.000   2.0635   0.01469   0.00945  -0.1966  0.0011  0.4553  -5.8515   0.0000   0.3254
  11.500   2.0937   0.01549   0.01028  -0.1923  0.0010  0.4665  -6.4107   0.0000   0.3209
  12.000   2.1233   0.01642   0.01122  -0.1880  0.0010  0.4681  -6.9852   0.0000   0.3166
  12.500   2.1507   0.01750   0.01235  -0.1837  0.0010  0.5071  -7.5669   0.0000   0.3124
  13.000   2.1775   0.01875   0.01365  -0.1795  0.0010  0.5318  -8.1638   0.0000   0.3084
  13.500   2.2029   0.02020   0.01514  -0.1755  0.0009  0.5625  -8.7704   0.0000   0.3045
  14.000   2.2260   0.02186   0.01687  -0.1715  0.0009  0.5983  -9.3789   0.0000   0.3008
  14.500   2.2472   0.02378   0.01886  -0.1676  0.0009  0.6441  -9.9909   0.0000   0.2971
  15.000   2.2676   0.02601   0.02116  -0.1640  0.0009  0.6862  -10.6135   0.0000   0.2937
  15.500   2.2847   0.02858   0.02379  -0.1603  0.0008  0.7095  -11.2268   0.0000   0.2903
  16.000   2.3010   0.03147   0.02676  -0.1571  0.0008  0.7482  -11.8486   0.0000   0.2872
  16.500   2.3151   0.03479   0.03018  -0.1541  0.0007  0.8019  -12.4663   0.0000   0.2842
  17.500   2.2736   0.04983   0.04577  -0.1461  0.0015  1.0000  -13.0277   0.0000   0.2791
  18.000   2.2767   0.05515   0.05117  -0.1442  0.0021  1.0000  -13.6080   0.0000   0.2768
  18.500   2.2729   0.06150   0.05760  -0.1426  0.0024  1.0000  -14.0909   0.0000   0.2748
  19.000   2.2658   0.06844   0.06463  -0.1414  0.0026  1.0000  -14.5440   0.0000   0.2729
  19.500   2.2547   0.07609   0.07237  -0.1407  0.0028  1.0000  -14.9597   0.0000   0.2714


