XFLR5 v6.02 Beta

 Calculated polar for: WORTMANN FX 63-137

 1 1 Reynolds number fixed          Mach number fixed         

 xtrf =   1.000 (top)        1.000 (bottom)
 Mach =   0.000     Re =    20.500 e 6     Ncrit =   9.000

  alpha     CL        CD       CDp       CM    Top Xtr Bot Xtr   Cpmin    Chinge    XCp    
 ------- -------- --------- --------- -------- ------- ------- -------- --------- ---------
 -21.000  -1.0893   0.06056   0.05780  -0.1421  0.7175  0.0028  -24.0673   0.0000   0.0839
 -20.500  -1.1474   0.04622   0.04327  -0.1539  0.7174  0.0028  -24.8624   0.0000   0.0827
 -20.000  -1.1587   0.03842   0.03528  -0.1609  0.6817  0.0029  -24.7472   0.0000   0.0797
 -19.500  -1.1665   0.03176   0.02848  -0.1665  0.6603  0.0029  -24.5280   0.0000   0.0774
 -19.000  -1.1633   0.02660   0.02319  -0.1708  0.6405  0.0030  -24.1022   0.0000   0.0748
 -18.500  -1.1491   0.02297   0.01941  -0.1732  0.6084  0.0031  -23.4810   0.0000   0.0722
 -18.000  -1.1318   0.01971   0.01609  -0.1752  0.5984  0.0031  -22.8125   0.0000   0.0693
 -17.500  -1.0901   0.01702   0.01333  -0.1803  0.5960  0.0032  -21.8516   0.0000   0.0596
 -17.000  -1.0389   0.01504   0.01114  -0.1858  0.5322  0.0033  -20.7852   0.0000   0.0468
 -16.500  -0.9890   0.01411   0.01003  -0.1872  0.4686  0.0034  -19.7151   0.0000   0.0368
 -15.500  -0.8786   0.01247   0.00829  -0.1903  0.4649  0.0035  -17.5188   0.0000   0.0103
 -15.000  -0.8236   0.01188   0.00759  -0.1913  0.4300  0.0036  -16.4624   0.0000  -0.0051
 -14.500  -0.7671   0.01132   0.00696  -0.1923  0.4166  0.0036  -15.4173   0.0000  -0.0236
 -14.000  -0.7113   0.01090   0.00639  -0.1931  0.3626  0.0037  -14.4094   0.0000  -0.0443
 -13.500  -0.6548   0.01051   0.00587  -0.1939  0.3088  0.0037  -13.4286   0.0000  -0.0691
 -13.000  -0.5967   0.01010   0.00539  -0.1948  0.2961  0.0038  -12.5325   0.0000  -0.0999
 -12.500  -0.5379   0.00971   0.00495  -0.1958  0.2839  0.0038  -11.6565   0.0000  -0.1381
 -12.000  -0.4788   0.00935   0.00455  -0.1968  0.2772  0.0039  -10.8021   0.0000  -0.1862
 -11.500  -0.4194   0.00903   0.00420  -0.1978  0.2772  0.0039  -9.9517   0.0000  -0.2481
 -11.000  -0.3614   0.00884   0.00388  -0.1984  0.2327  0.0040  -9.1572   0.0000  -0.3275
 -10.000  -0.2429   0.00839   0.00331  -0.2001  0.1939  0.0041  -7.6321   0.0000  -0.6102
  -9.500  -0.1834   0.00819   0.00305  -0.2009  0.1850  0.0041  -6.9273   0.0000  -0.8908
  -9.000  -0.1233   0.00797   0.00279  -0.2018  0.1704  0.0041  -6.2905   0.0000  -1.4488
  -8.500  -0.0633   0.00778   0.00258  -0.2027  0.1695  0.0042  -5.6441   0.0000  -3.0637
  -8.000  -0.0033   0.00762   0.00239  -0.2036  0.1686  0.0042  -5.0358   0.0000  -63.9184
  -7.500   0.0562   0.00752   0.00224  -0.2043  0.1524  0.0042  -4.4667   0.0000   3.9950
  -7.000   0.1158   0.00743   0.00210  -0.2050  0.1430  0.0043  -4.0075   0.0000   2.0698
  -6.500   0.1755   0.00734   0.00198  -0.2057  0.1383  0.0043  -3.6406   0.0000   1.4518
  -6.000   0.2352   0.00726   0.00189  -0.2065  0.1330  0.0043  -3.2784   0.0000   1.1481
  -5.500   0.2948   0.00721   0.00181  -0.2071  0.1276  0.0044  -2.9193   0.0000   0.9674
  -5.000   0.3543   0.00716   0.00176  -0.2078  0.1240  0.0044  -2.5794   0.0000   0.8476
  -4.500   0.4138   0.00713   0.00171  -0.2085  0.1236  0.0045  -2.2576   0.0000   0.7623
  -4.000   0.4730   0.00711   0.00169  -0.2091  0.1231  0.0045  -1.9468   0.0000   0.6984
  -3.500   0.5311   0.00720   0.00172  -0.2094  0.1031  0.0046  -1.6529   0.0000   0.6492
  -3.000   0.5894   0.00727   0.00173  -0.2099  0.0961  0.0069  -1.3727   0.0000   0.6096
  -2.500   0.6480   0.00731   0.00175  -0.2103  0.0927  0.0078  -1.1048   0.0000   0.5770
  -2.000   0.7064   0.00736   0.00179  -0.2108  0.0869  0.0081  -0.9523   0.0000   0.5498
  -1.500   0.7647   0.00741   0.00184  -0.2112  0.0844  0.0098  -1.0020   0.0000   0.5267
  -1.000   0.8231   0.00747   0.00189  -0.2117  0.0838  0.0151  -1.0543   0.0000   0.5069
  -0.500   0.8808   0.00756   0.00197  -0.2120  0.0829  0.0155  -1.1067   0.0000   0.4896
   0.000   0.9384   0.00766   0.00206  -0.2124  0.0819  0.0157  -1.1593   0.0000   0.4744
   0.500   0.9937   0.00793   0.00225  -0.2122  0.0607  0.0161  -1.2114   0.0000   0.4610
   1.000   1.0530   0.00786   0.00226  -0.2129  0.0818  0.0172  -1.2765   0.0000   0.4489
   1.500   1.1081   0.00814   0.00247  -0.2128  0.0646  0.0177  -1.3502   0.0000   0.4380
   2.000   1.1637   0.00836   0.00264  -0.2128  0.0554  0.0229  -1.4253   0.0000   0.4281
   2.500   1.2146   0.00898   0.00312  -0.2118  0.0045  0.0378  -1.5088   0.0000   0.4190
   3.000   1.2694   0.00923   0.00335  -0.2116  0.0034  0.0394  -1.6189   0.0000   0.4106
   3.500   1.3239   0.00948   0.00359  -0.2115  0.0028  0.0490  -1.7352   0.0000   0.4029
   4.500   1.4318   0.01003   0.00413  -0.2109  0.0026  0.0671  -2.0464   0.0000   0.3890
   5.000   1.4848   0.01034   0.00443  -0.2105  0.0019  0.0800  -2.2260   0.0000   0.3827
   5.500   1.5376   0.01066   0.00475  -0.2101  0.0014  0.1062  -2.4099   0.0000   0.3767
   6.000   1.5909   0.01095   0.00513  -0.2099  0.0013  0.1940  -2.5993   0.0000   0.3712
   6.500   1.6418   0.01133   0.00550  -0.2091  0.0012  0.2098  -2.7897   0.0000   0.3658
   7.000   1.6928   0.01170   0.00591  -0.2085  0.0012  0.2493  -2.9845   0.0000   0.3608
   7.500   1.7432   0.01210   0.00636  -0.2078  0.0012  0.3078  -3.1826   0.0000   0.3559
   8.000   1.7897   0.01260   0.00680  -0.2062  0.0012  0.2703  -3.3780   0.0000   0.3510
   8.500   1.8395   0.01301   0.00735  -0.2055  0.0012  0.3916  -3.5834   0.0000   0.3466
   9.000   1.8849   0.01354   0.00790  -0.2039  0.0012  0.4216  -3.8256   0.0000   0.3422
   9.500   1.9278   0.01412   0.00850  -0.2018  0.0011  0.4407  -4.0931   0.0000   0.3377
  10.000   1.9611   0.01473   0.00920  -0.1978  0.0011  0.5056  -4.5613   0.0000   0.3330
  10.500   1.9922   0.01548   0.00997  -0.1935  0.0011  0.5189  -5.0662   0.0000   0.3283
  11.000   2.0232   0.01635   0.01087  -0.1894  0.0011  0.5327  -5.5926   0.0000   0.3238
  11.500   2.0533   0.01734   0.01191  -0.1854  0.0011  0.5645  -6.1342   0.0000   0.3195
  12.000   2.0815   0.01850   0.01312  -0.1813  0.0010  0.5927  -6.6904   0.0000   0.3153
  12.500   2.1090   0.01983   0.01452  -0.1774  0.0010  0.6288  -7.2654   0.0000   0.3112
  13.000   2.1343   0.02139   0.01615  -0.1735  0.0010  0.6686  -7.8397   0.0000   0.3073
  13.500   2.1552   0.02325   0.01807  -0.1693  0.0009  0.6984  -8.4023   0.0000   0.3035
  14.000   2.1761   0.02538   0.02029  -0.1656  0.0009  0.7418  -8.9820   0.0000   0.2999
  14.500   2.1963   0.02780   0.02280  -0.1622  0.0009  0.7910  -9.5725   0.0000   0.2964
  15.000   2.2165   0.03056   0.02571  -0.1595  0.0009  0.8772  -10.1786   0.0000   0.2933
  15.500   2.2347   0.03360   0.02894  -0.1569  0.0008  1.0000  -10.7862   0.0000   0.2903
  16.000   2.2462   0.03714   0.03253  -0.1537  0.0008  1.0000  -11.3545   0.0000   0.2873
  16.500   2.2547   0.04105   0.03650  -0.1507  0.0008  1.0000  -11.9091   0.0000   0.2844
  17.000   2.2605   0.04553   0.04104  -0.1480  0.0008  1.0000  -12.4526   0.0000   0.2817
  17.500   2.2716   0.04964   0.04521  -0.1458  0.0008  1.0000  -13.0540   0.0000   0.2791
  18.000   2.2731   0.05511   0.05076  -0.1438  0.0007  1.0000  -13.5800   0.0000   0.2768
  18.500   2.2715   0.06114   0.05686  -0.1422  0.0007  1.0000  -14.0845   0.0000   0.2747
  19.000   2.2673   0.06766   0.06347  -0.1410  0.0006  1.0000  -14.5694   0.0000   0.2728
  19.500   2.2598   0.07475   0.07066  -0.1403  0.0006  1.0000  -15.0266   0.0000   0.2712
  20.000   2.2603   0.08045   0.07643  -0.1396  0.0005  1.0000  -15.5715   0.0000   0.2693


