XFLR5 v6.02 Beta

 Calculated polar for: WORTMANN FX 63-137

 1 1 Reynolds number fixed          Mach number fixed         

 xtrf =   1.000 (top)        1.000 (bottom)
 Mach =   0.000     Re =    21.250 e 6     Ncrit =   9.000

  alpha     CL        CD       CDp       CM    Top Xtr Bot Xtr   Cpmin    Chinge    XCp    
 ------- -------- --------- --------- -------- ------- ------- -------- --------- ---------
 -21.000  -1.0948   0.05952   0.05669  -0.1434  0.6897  0.0028  -24.1949   0.0000   0.0834
 -20.500  -1.1504   0.04564   0.04263  -0.1548  0.6902  0.0028  -24.9337   0.0000   0.0823
 -20.000  -1.1690   0.03709   0.03391  -0.1622  0.6726  0.0028  -24.9379   0.0000   0.0799
 -19.500  -1.1700   0.03135   0.02806  -0.1670  0.6583  0.0029  -24.5934   0.0000   0.0775
 -19.000  -1.1669   0.02630   0.02284  -0.1710  0.6201  0.0029  -24.1641   0.0000   0.0751
 -18.500  -1.1523   0.02263   0.01908  -0.1735  0.5998  0.0030  -23.5379   0.0000   0.0724
 -18.000  -1.1335   0.01941   0.01579  -0.1757  0.5963  0.0031  -22.8489   0.0000   0.0691
 -17.500  -1.0905   0.01671   0.01302  -0.1811  0.5947  0.0032  -21.8736   0.0000   0.0589
 -16.500  -0.9890   0.01395   0.00987  -0.1876  0.4661  0.0034  -19.7264   0.0000   0.0365
 -16.000  -0.9342   0.01308   0.00896  -0.1892  0.4651  0.0035  -18.6201   0.0000   0.0240
 -15.500  -0.8797   0.01241   0.00820  -0.1903  0.4358  0.0035  -17.5412   0.0000   0.0105
 -15.000  -0.8237   0.01179   0.00749  -0.1914  0.4225  0.0036  -16.4737   0.0000  -0.0053
 -14.500  -0.7668   0.01122   0.00687  -0.1925  0.4088  0.0036  -15.4244   0.0000  -0.0239
 -14.000  -0.7113   0.01082   0.00631  -0.1932  0.3517  0.0037  -14.4187   0.0000  -0.0445
 -13.500  -0.6544   0.01042   0.00578  -0.1941  0.3036  0.0037  -13.4432   0.0000  -0.0696
 -13.000  -0.5962   0.01001   0.00531  -0.1950  0.2910  0.0038  -12.5469   0.0000  -0.1005
 -12.500  -0.5373   0.00962   0.00488  -0.1960  0.2791  0.0038  -11.6709   0.0000  -0.1389
 -12.000  -0.4781   0.00926   0.00448  -0.1970  0.2769  0.0039  -10.8179   0.0000  -0.1872
 -11.500  -0.4187   0.00894   0.00413  -0.1980  0.2768  0.0039  -9.9729   0.0000  -0.2495
 -11.000  -0.3608   0.00876   0.00382  -0.1986  0.2253  0.0040  -9.1825   0.0000  -0.3292
 -10.000  -0.2423   0.00832   0.00326  -0.2003  0.1913  0.0041  -7.6667   0.0000  -0.6135
  -9.500  -0.1826   0.00812   0.00300  -0.2011  0.1825  0.0041  -6.9635   0.0000  -0.8966
  -9.000  -0.1226   0.00790   0.00275  -0.2020  0.1701  0.0041  -6.3176   0.0000  -1.4610
  -8.500  -0.0626   0.00772   0.00254  -0.2029  0.1693  0.0042  -5.6718   0.0000  -3.1071
  -8.000  -0.0025   0.00756   0.00236  -0.2037  0.1683  0.0042  -5.0609   0.0000  -82.6840
  -7.500   0.0568   0.00748   0.00222  -0.2044  0.1456  0.0042  -4.4865   0.0000   3.9597
  -7.000   0.1164   0.00738   0.00208  -0.2051  0.1414  0.0043  -4.0228   0.0000   2.0611
  -6.500   0.1761   0.00730   0.00197  -0.2059  0.1367  0.0043  -3.6468   0.0000   1.4486
  -6.000   0.2358   0.00722   0.00188  -0.2066  0.1316  0.0043  -3.2810   0.0000   1.1464
  -5.500   0.2954   0.00717   0.00180  -0.2073  0.1262  0.0044  -2.9219   0.0000   0.9664
  -5.000   0.3549   0.00712   0.00175  -0.2079  0.1239  0.0044  -2.5804   0.0000   0.8470
  -4.500   0.4143   0.00709   0.00170  -0.2086  0.1235  0.0045  -2.2574   0.0000   0.7619
  -3.500   0.5316   0.00717   0.00171  -0.2096  0.1016  0.0046  -1.6525   0.0000   0.6490
  -3.000   0.5900   0.00723   0.00172  -0.2100  0.0953  0.0067  -1.3720   0.0000   0.6094
  -2.500   0.6486   0.00727   0.00174  -0.2105  0.0920  0.0077  -1.1039   0.0000   0.5769
  -2.000   0.7070   0.00732   0.00178  -0.2109  0.0863  0.0080  -0.9526   0.0000   0.5497
  -1.500   0.7654   0.00737   0.00183  -0.2114  0.0843  0.0096  -1.0024   0.0000   0.5267
  -1.000   0.8237   0.00743   0.00188  -0.2118  0.0837  0.0150  -1.0548   0.0000   0.5068
  -0.500   0.8815   0.00752   0.00196  -0.2122  0.0828  0.0154  -1.1072   0.0000   0.4896
   0.000   0.9390   0.00762   0.00205  -0.2125  0.0819  0.0157  -1.1598   0.0000   0.4744
   0.500   0.9943   0.00790   0.00224  -0.2124  0.0589  0.0160  -1.2119   0.0000   0.4610
   1.000   1.0524   0.00793   0.00232  -0.2128  0.0687  0.0171  -1.2759   0.0000   0.4489
   1.500   1.1085   0.00812   0.00246  -0.2129  0.0630  0.0176  -1.3505   0.0000   0.4380
   2.000   1.1644   0.00832   0.00263  -0.2129  0.0538  0.0227  -1.4259   0.0000   0.4281
   2.500   1.2153   0.00894   0.00310  -0.2119  0.0044  0.0377  -1.5096   0.0000   0.4190
   3.000   1.2702   0.00918   0.00333  -0.2118  0.0033  0.0392  -1.6199   0.0000   0.4106
   3.500   1.3247   0.00943   0.00357  -0.2116  0.0027  0.0486  -1.7363   0.0000   0.4029
   4.500   1.4327   0.00998   0.00410  -0.2111  0.0025  0.0670  -2.0479   0.0000   0.3890
   5.000   1.4857   0.01028   0.00440  -0.2107  0.0018  0.0791  -2.2276   0.0000   0.3827
   5.500   1.5385   0.01060   0.00472  -0.2103  0.0014  0.1044  -2.4117   0.0000   0.3768
   6.000   1.5919   0.01089   0.00510  -0.2101  0.0013  0.1938  -2.6013   0.0000   0.3712
   6.500   1.6428   0.01127   0.00546  -0.2093  0.0012  0.2049  -2.7917   0.0000   0.3659
   7.000   1.6939   0.01164   0.00587  -0.2087  0.0012  0.2486  -2.9868   0.0000   0.3608
   7.500   1.7444   0.01203   0.00631  -0.2080  0.0012  0.3068  -3.1851   0.0000   0.3560
   8.000   1.7908   0.01253   0.00675  -0.2064  0.0012  0.2629  -3.3804   0.0000   0.3511
   8.500   1.8406   0.01294   0.00730  -0.2057  0.0012  0.3830  -3.5859   0.0000   0.3467
  10.000   1.9638   0.01464   0.00913  -0.1983  0.0011  0.5008  -4.5771   0.0000   0.3331
  10.500   1.9947   0.01538   0.00988  -0.1939  0.0011  0.5137  -5.0820   0.0000   0.3284
  11.000   2.0259   0.01623   0.01077  -0.1899  0.0011  0.5312  -5.6094   0.0000   0.3239
  11.500   2.0561   0.01721   0.01180  -0.1858  0.0011  0.5630  -6.1531   0.0000   0.3196
  12.000   2.0838   0.01836   0.01299  -0.1816  0.0010  0.5845  -6.7077   0.0000   0.3153
  12.500   2.1117   0.01968   0.01438  -0.1778  0.0010  0.6265  -7.2850   0.0000   0.3113
  13.000   2.1374   0.02119   0.01596  -0.1739  0.0010  0.6582  -7.8633   0.0000   0.3074
  13.500   2.1589   0.02301   0.01785  -0.1698  0.0009  0.6914  -8.4305   0.0000   0.3035
  14.000   2.1788   0.02514   0.02005  -0.1659  0.0009  0.7251  -9.0039   0.0000   0.2999
  14.500   2.1991   0.02754   0.02254  -0.1625  0.0009  0.7759  -9.5963   0.0000   0.2965
  15.000   2.2185   0.03027   0.02540  -0.1595  0.0009  0.8488  -10.1965   0.0000   0.2933
  16.000   2.2501   0.03679   0.03220  -0.1540  0.0008  1.0000  -11.3894   0.0000   0.2873
  16.500   2.2593   0.04062   0.03608  -0.1510  0.0008  1.0000  -11.9514   0.0000   0.2844
  17.000   2.2660   0.04495   0.04047  -0.1483  0.0008  1.0000  -12.5039   0.0000   0.2817
  17.500   2.2756   0.04923   0.04481  -0.1461  0.0007  1.0000  -13.0925   0.0000   0.2791
  18.000   2.2771   0.05468   0.05033  -0.1440  0.0007  1.0000  -13.6200   0.0000   0.2767
  18.500   2.2755   0.06069   0.05642  -0.1424  0.0007  1.0000  -14.1256   0.0000   0.2746
  19.000   2.2718   0.06714   0.06296  -0.1411  0.0006  1.0000  -14.6160   0.0000   0.2727
  20.000   2.2648   0.07995   0.07593  -0.1396  0.0005  1.0000  -15.6204   0.0000   0.2692


