XFLR5 v6.02 Beta

 Calculated polar for: WORTMANN FX 63-137

 1 1 Reynolds number fixed          Mach number fixed         

 xtrf =   1.000 (top)        1.000 (bottom)
 Mach =   0.000     Re =    65.500 e 6     Ncrit =   9.000

  alpha     CL        CD       CDp       CM    Top Xtr Bot Xtr   Cpmin    Chinge    XCp    
 ------- -------- --------- --------- -------- ------- ------- -------- --------- ---------
 -26.000  -0.5003   0.25361   0.25139  -0.0284  0.3015  0.0013  -6.0807   0.0000   0.1438
 -25.500  -0.4836   0.24854   0.24630  -0.0325  0.2972  0.0013  -5.8545   0.0000   0.1337
 -25.000  -0.4666   0.24351   0.24125  -0.0366  0.2897  0.0013  -5.6372   0.0000   0.1228
 -24.500  -0.4497   0.23858   0.23625  -0.0405  0.2458  0.0013  -5.4283   0.0000   0.1113
 -24.000  -0.4325   0.23371   0.23136  -0.0444  0.2326  0.0013  -5.2253   0.0000   0.0986
 -23.500  -0.4150   0.22899   0.22661  -0.0483  0.2220  0.0013  -5.0257   0.0000   0.0849
 -23.000  -0.3973   0.22450   0.22210  -0.0521  0.2215  0.0013  -4.8330   0.0000   0.0699
 -22.500  -0.3792   0.22044   0.21804  -0.0558  0.2211  0.0013  -4.6434   0.0000   0.0534
 -22.000  -0.3609   0.21665   0.21423  -0.0595  0.2210  0.0013  -4.4572   0.0000   0.0354
 -21.000  -0.3588   0.19335   0.19088  -0.0687  0.2210  0.0014  -6.1737   0.0000   0.0067
 -20.500  -0.3418   0.18808   0.18557  -0.0721  0.1986  0.0014  -5.9705   0.0000  -0.0134
 -20.000  -0.3248   0.18275   0.18018  -0.0755  0.1703  0.0014  -5.7736   0.0000  -0.0354
 -19.500  -0.3078   0.17733   0.17475  -0.0788  0.1694  0.0016  -5.5820   0.0000  -0.0601
 -19.000  -0.2908   0.17187   0.16928  -0.0821  0.1692  0.0017  -5.3950   0.0000  -0.0874
 -18.500  -0.2741   0.16637   0.16376  -0.0853  0.1693  0.0019  -5.2143   0.0000  -0.1178
 -18.000  -0.2575   0.16084   0.15822  -0.0884  0.1692  0.0020  -5.0401   0.0000  -0.1516
 -17.500  -0.2413   0.15532   0.15268  -0.0914  0.1691  0.0021  -4.8739   0.0000  -0.1892
 -17.000  -0.2259   0.14992   0.14728  -0.0943  0.1690  0.0023  -4.7180   0.0000  -0.2299
 -16.500  -0.2110   0.14457   0.14189  -0.0971  0.1461  0.0025  -4.5704   0.0000  -0.2749
 -16.000  -0.1953   0.13886   0.13616  -0.1000  0.1434  0.0027  -4.4272   0.0000  -0.3297
 -15.500  -0.1800   0.13307   0.13036  -0.1029  0.1406  0.0029  -4.2934   0.0000  -0.3928
 -15.000  -0.1651   0.12720   0.12448  -0.1058  0.1380  0.0030  -4.1740   0.0000  -0.4658
 -14.500  -0.1507   0.12126   0.11854  -0.1086  0.1355  0.0032  -4.1018   0.0000  -0.5501
 -14.000  -0.1371   0.11538   0.11264  -0.1114  0.1294  0.0033  -4.0373   0.0000  -0.6469
 -13.500  -0.1252   0.10948   0.10674  -0.1142  0.1265  0.0035  -3.9964   0.0000  -0.7510
 -13.000  -0.1132   0.10313   0.10039  -0.1172  0.1244  0.0036  -3.9706   0.0000  -0.8801
 -12.500  -0.1029   0.09652   0.09378  -0.1203  0.1240  0.0037  -3.9727   0.0000  -1.0204
 -12.000  -0.0960   0.08959   0.08685  -0.1236  0.1239  0.0038  -4.0227   0.0000  -1.1418
 -11.500  -0.0943   0.08146   0.07874  -0.1277  0.1239  0.0039  -4.1693   0.0000  -1.2069
 -10.500  -0.2858   0.00710   0.00265  -0.2039  0.1397  0.0039  -8.5123   0.0000  -0.4969
 -10.000  -0.2261   0.00693   0.00246  -0.2047  0.1346  0.0040  -7.7712   0.0000  -0.6949
  -9.500  -0.1662   0.00677   0.00228  -0.2054  0.1295  0.0041  -7.0597   0.0000  -1.0358
  -9.000  -0.1064   0.00664   0.00213  -0.2062  0.1239  0.0041  -6.3781   0.0000  -1.7604
  -8.500  -0.0465   0.00652   0.00199  -0.2070  0.1236  0.0041  -5.7241   0.0000  -4.3508
  -8.000   0.0133   0.00641   0.00187  -0.2077  0.1233  0.0042  -5.0997   0.0000  16.3607
  -7.500   0.0731   0.00632   0.00177  -0.2084  0.1229  0.0042  -4.5050   0.0000   3.1848
  -7.000   0.1329   0.00624   0.00167  -0.2091  0.1228  0.0043  -4.0424   0.0000   1.8664
  -6.500   0.1921   0.00623   0.00160  -0.2097  0.1027  0.0043  -3.6525   0.0000   1.3691
  -6.000   0.2515   0.00619   0.00154  -0.2103  0.0997  0.0043  -3.2764   0.0000   1.1053
  -5.500   0.3109   0.00616   0.00150  -0.2109  0.0969  0.0044  -2.9155   0.0000   0.9425
  -5.000   0.3703   0.00615   0.00146  -0.2115  0.0944  0.0044  -2.5699   0.0000   0.8319
  -4.500   0.4295   0.00614   0.00144  -0.2121  0.0887  0.0044  -2.2396   0.0000   0.7519
  -4.000   0.4887   0.00614   0.00143  -0.2126  0.0843  0.0045  -1.9250   0.0000   0.6914
  -3.500   0.5478   0.00615   0.00143  -0.2132  0.0842  0.0045  -1.6264   0.0000   0.6439
  -3.000   0.6067   0.00617   0.00144  -0.2137  0.0841  0.0046  -1.3436   0.0000   0.6057
  -2.500   0.6655   0.00620   0.00146  -0.2142  0.0838  0.0046  -1.0761   0.0000   0.5742
  -2.000   0.7226   0.00637   0.00154  -0.2143  0.0493  0.0049  -0.9622   0.0000   0.5480
  -1.500   0.7807   0.00645   0.00160  -0.2147  0.0459  0.0057  -1.0126   0.0000   0.5255
  -1.000   0.8387   0.00653   0.00167  -0.2151  0.0434  0.0067  -1.0649   0.0000   0.5061
  -0.500   0.8966   0.00662   0.00174  -0.2155  0.0411  0.0073  -1.1176   0.0000   0.4892
   0.000   0.9544   0.00671   0.00182  -0.2158  0.0389  0.0079  -1.1705   0.0000   0.4742
   0.500   1.0119   0.00681   0.00191  -0.2161  0.0382  0.0098  -1.2255   0.0000   0.4610
   1.000   1.0694   0.00691   0.00201  -0.2164  0.0400  0.0169  -1.2906   0.0000   0.4491
   1.500   1.1264   0.00704   0.00212  -0.2166  0.0391  0.0171  -1.3663   0.0000   0.4383
   2.000   1.1830   0.00718   0.00225  -0.2168  0.0373  0.0208  -1.4426   0.0000   0.4286
   3.000   1.2918   0.00783   0.00278  -0.2162  0.0013  0.0379  -1.6471   0.0000   0.4112
   3.500   1.3471   0.00804   0.00297  -0.2162  0.0013  0.0391  -1.7652   0.0000   0.4036
   4.000   1.4021   0.00826   0.00318  -0.2161  0.0013  0.0419  -1.9116   0.0000   0.3965
   4.500   1.4566   0.00850   0.00340  -0.2160  0.0013  0.0476  -2.0904   0.0000   0.3899
   5.500   1.5646   0.00902   0.00391  -0.2155  0.0013  0.0733  -2.4610   0.0000   0.3778
   6.000   1.6181   0.00929   0.00419  -0.2152  0.0012  0.1068  -2.6527   0.0000   0.3722
   6.500   1.6707   0.00960   0.00449  -0.2148  0.0012  0.1188  -2.8477   0.0000   0.3669
   7.500   1.7742   0.01026   0.00514  -0.2136  0.0012  0.1466  -3.2484   0.0000   0.3571
   8.000   1.8246   0.01063   0.00550  -0.2128  0.0012  0.1463  -3.4530   0.0000   0.3524
   8.500   1.8742   0.01102   0.00588  -0.2119  0.0012  0.1611  -3.6604   0.0000   0.3479
   9.000   1.9236   0.01142   0.00630  -0.2110  0.0012  0.2168  -3.9380   0.0000   0.3436
   9.500   1.9716   0.01185   0.00675  -0.2099  0.0012  0.2491  -4.3192   0.0000   0.3394
  10.000   2.0187   0.01230   0.00725  -0.2086  0.0012  0.3082  -4.9039   0.0000   0.3353
  10.500   2.0636   0.01281   0.00778  -0.2069  0.0011  0.3406  -5.5067   0.0000   0.3313
  12.000   2.1616   0.01474   0.00974  -0.1947  0.0010  0.3695  -7.2518   0.0000   0.3181
  12.500   2.1910   0.01560   0.01061  -0.1904  0.0010  0.3705  -7.8574   0.0000   0.3138
  13.500   2.2471   0.01775   0.01287  -0.1821  0.0009  0.4662  -9.1116   0.0000   0.3058
  14.500   2.2527   0.02322   0.01855  -0.1677  0.0015  0.4972  -9.9899   0.0000   0.2970
  15.000   2.2691   0.02559   0.02099  -0.1634  0.0019  0.5204  -10.5964   0.0000   0.2934
  15.500   2.2878   0.02802   0.02349  -0.1599  0.0024  0.5556  -11.2386   0.0000   0.2901
  16.000   2.3006   0.03106   0.02659  -0.1562  0.0028  0.5726  -11.8274   0.0000   0.2868
  16.500   2.3113   0.03452   0.03013  -0.1528  0.0031  0.6103  -12.4102   0.0000   0.2838
  17.000   2.3179   0.03845   0.03414  -0.1494  0.0035  0.6317  -12.9682   0.0000   0.2808
  17.500   2.3208   0.04296   0.03873  -0.1463  0.0040  0.6569  -13.5014   0.0000   0.2781
  18.000   2.3231   0.04802   0.04388  -0.1439  0.0043  0.6882  -14.0383   0.0000   0.2756
  18.500   2.3228   0.05361   0.04957  -0.1418  0.0045  0.7131  -14.5605   0.0000   0.2732
  19.000   2.3195   0.05992   0.05599  -0.1403  0.0046  0.7486  -15.0608   0.0000   0.2712
  19.500   2.3273   0.06495   0.06112  -0.1393  0.0046  0.7967  -15.6803   0.0000   0.2691
  20.000   2.3184   0.07230   0.06858  -0.1386  0.0046  0.8286  -16.1394   0.0000   0.2675


