XFLR5 v6.02 Beta

 Calculated polar for: WORTMANN FX 63-137

 1 1 Reynolds number fixed          Mach number fixed         

 xtrf =   1.000 (top)        1.000 (bottom)
 Mach =   0.000     Re =    24.000 e 6     Ncrit =   9.000

  alpha     CL        CD       CDp       CM    Top Xtr Bot Xtr   Cpmin    Chinge    XCp    
 ------- -------- --------- --------- -------- ------- ------- -------- --------- ---------
 -21.000  -1.1244   0.05512   0.05218  -0.1476  0.6601  0.0026  -24.7934   0.0000   0.0836
 -20.500  -1.1614   0.04404   0.04095  -0.1567  0.6589  0.0026  -25.1604   0.0000   0.0821
 -20.000  -1.1792   0.03587   0.03261  -0.1636  0.6344  0.0026  -25.1353   0.0000   0.0801
 -19.500  -1.1850   0.02971   0.02629  -0.1687  0.6034  0.0027  -24.8631   0.0000   0.0781
 -18.000  -1.1394   0.01857   0.01488  -0.1771  0.5609  0.0029  -22.9695   0.0000   0.0688
 -17.500  -1.0934   0.01603   0.01224  -0.1828  0.5444  0.0030  -21.9557   0.0000   0.0579
 -17.000  -1.0421   0.01451   0.01052  -0.1867  0.4666  0.0032  -20.8696   0.0000   0.0465
 -16.500  -0.9900   0.01358   0.00947  -0.1883  0.4322  0.0033  -19.7712   0.0000   0.0360
 -16.000  -0.9357   0.01278   0.00859  -0.1896  0.4195  0.0034  -18.6684   0.0000   0.0239
 -15.500  -0.8798   0.01207   0.00783  -0.1910  0.4099  0.0035  -17.5733   0.0000   0.0098
 -15.000  -0.8230   0.01144   0.00716  -0.1922  0.4018  0.0036  -16.4953   0.0000  -0.0065
 -14.500  -0.7654   0.01088   0.00656  -0.1933  0.4004  0.0036  -15.4390   0.0000  -0.0254
 -13.500  -0.6532   0.01015   0.00555  -0.1947  0.2868  0.0037  -13.4790   0.0000  -0.0712
 -13.000  -0.5944   0.00974   0.00509  -0.1957  0.2783  0.0038  -12.5795   0.0000  -0.1027
 -12.500  -0.5354   0.00936   0.00468  -0.1967  0.2771  0.0038  -11.7041   0.0000  -0.1416
 -12.000  -0.4775   0.00911   0.00431  -0.1974  0.2334  0.0039  -10.8655   0.0000  -0.1886
 -11.500  -0.4179   0.00879   0.00396  -0.1984  0.2400  0.0039  -10.0298   0.0000  -0.2514
 -10.500  -0.2997   0.00833   0.00337  -0.2000  0.1912  0.0040  -8.4719   0.0000  -0.4494
 -10.000  -0.2401   0.00811   0.00311  -0.2009  0.1829  0.0040  -7.7344   0.0000  -0.6236
  -9.500  -0.1803   0.00791   0.00287  -0.2017  0.1742  0.0041  -7.0297   0.0000  -0.9150
  -9.000  -0.1203   0.00771   0.00265  -0.2026  0.1694  0.0041  -6.3636   0.0000  -1.4984
  -8.500  -0.0603   0.00754   0.00246  -0.2035  0.1684  0.0041  -5.7151   0.0000  -3.2413
  -8.000  -0.0010   0.00745   0.00230  -0.2041  0.1457  0.0042  -5.1014   0.0000  -206.1967
  -7.500   0.0586   0.00734   0.00215  -0.2049  0.1402  0.0042  -4.5151   0.0000   3.8481
  -7.000   0.1184   0.00725   0.00202  -0.2056  0.1363  0.0043  -4.0423   0.0000   2.0352
  -6.500   0.1781   0.00716   0.00192  -0.2063  0.1318  0.0043  -3.6568   0.0000   1.4379
  -6.000   0.2378   0.00709   0.00183  -0.2071  0.1266  0.0043  -3.2855   0.0000   1.1409
  -5.500   0.2974   0.00704   0.00176  -0.2077  0.1240  0.0044  -2.9263   0.0000   0.9632
  -5.000   0.3569   0.00699   0.00171  -0.2084  0.1236  0.0044  -2.5819   0.0000   0.8450
  -4.500   0.4163   0.00697   0.00167  -0.2090  0.1231  0.0045  -2.2563   0.0000   0.7605
  -4.000   0.4755   0.00696   0.00165  -0.2096  0.1225  0.0045  -1.9442   0.0000   0.6973
  -3.000   0.5919   0.00711   0.00169  -0.2104  0.0929  0.0063  -1.3693   0.0000   0.6090
  -2.500   0.6506   0.00714   0.00171  -0.2109  0.0896  0.0070  -1.1011   0.0000   0.5766
  -2.000   0.7090   0.00719   0.00174  -0.2114  0.0846  0.0075  -0.9539   0.0000   0.5495
  -1.500   0.7674   0.00724   0.00179  -0.2118  0.0841  0.0091  -1.0039   0.0000   0.5265
  -1.000   0.8258   0.00730   0.00185  -0.2123  0.0833  0.0148  -1.0562   0.0000   0.5067
  -0.500   0.8836   0.00739   0.00192  -0.2126  0.0823  0.0153  -1.1086   0.0000   0.4895
   0.000   0.9396   0.00762   0.00208  -0.2126  0.0630  0.0156  -1.1600   0.0000   0.4744
   0.500   0.9964   0.00777   0.00220  -0.2128  0.0529  0.0160  -1.2135   0.0000   0.4610
   1.000   1.0537   0.00788   0.00230  -0.2131  0.0593  0.0171  -1.2770   0.0000   0.4489
   1.500   1.1104   0.00802   0.00243  -0.2133  0.0571  0.0174  -1.3522   0.0000   0.4381
   2.000   1.1667   0.00817   0.00258  -0.2134  0.0514  0.0221  -1.4280   0.0000   0.4282
   2.500   1.2178   0.00878   0.00304  -0.2124  0.0039  0.0376  -1.5122   0.0000   0.4190
   3.000   1.2728   0.00902   0.00327  -0.2123  0.0029  0.0384  -1.6231   0.0000   0.4107
   3.500   1.3274   0.00927   0.00350  -0.2122  0.0024  0.0474  -1.7397   0.0000   0.4030
   4.000   1.3817   0.00953   0.00375  -0.2120  0.0028  0.0513  -1.8765   0.0000   0.3958
   4.500   1.4356   0.00980   0.00402  -0.2117  0.0022  0.0667  -2.0531   0.0000   0.3891
   5.000   1.4888   0.01010   0.00431  -0.2113  0.0016  0.0761  -2.2331   0.0000   0.3828
   5.500   1.5417   0.01041   0.00462  -0.2109  0.0013  0.1031  -2.4177   0.0000   0.3769
   6.000   1.5945   0.01072   0.00498  -0.2106  0.0013  0.1625  -2.6066   0.0000   0.3713
   6.500   1.6463   0.01107   0.00535  -0.2100  0.0012  0.1951  -2.7986   0.0000   0.3660
   7.000   1.6969   0.01145   0.00573  -0.2092  0.0012  0.2176  -2.9931   0.0000   0.3609
   7.500   1.7470   0.01185   0.00616  -0.2084  0.0012  0.2521  -3.1910   0.0000   0.3560
   8.000   1.7950   0.01230   0.00660  -0.2072  0.0012  0.2489  -3.3895   0.0000   0.3512
   8.500   1.8452   0.01270   0.00712  -0.2066  0.0012  0.3685  -3.5958   0.0000   0.3469
   9.000   1.8906   0.01322   0.00764  -0.2049  0.0012  0.3794  -3.8421   0.0000   0.3424
   9.500   1.9346   0.01377   0.00822  -0.2030  0.0011  0.4066  -4.1134   0.0000   0.3380
  10.000   1.9735   0.01434   0.00890  -0.2002  0.0011  0.4980  -4.6333   0.0000   0.3335
  10.500   2.0039   0.01504   0.00961  -0.1956  0.0011  0.4997  -5.1378   0.0000   0.3288
  11.000   2.0343   0.01586   0.01044  -0.1913  0.0011  0.5127  -5.6642   0.0000   0.3242
  11.500   2.0653   0.01679   0.01142  -0.1874  0.0011  0.5403  -6.2155   0.0000   0.3199
  12.000   2.0929   0.01789   0.01257  -0.1831  0.0010  0.5639  -6.7729   0.0000   0.3156
  12.500   2.1198   0.01917   0.01389  -0.1789  0.0010  0.5883  -7.3444   0.0000   0.3115
  13.000   2.1462   0.02062   0.01541  -0.1751  0.0010  0.6290  -7.9298   0.0000   0.3076
  13.500   2.1700   0.02230   0.01717  -0.1712  0.0009  0.6722  -8.5161   0.0000   0.3038
  14.000   2.1910   0.02426   0.01919  -0.1672  0.0009  0.7006  -9.1006   0.0000   0.3001
  14.500   2.2117   0.02653   0.02154  -0.1637  0.0009  0.7451  -9.6987   0.0000   0.2966
  15.000   2.2296   0.02918   0.02429  -0.1603  0.0009  0.7933  -10.2916   0.0000   0.2933
  15.500   2.2526   0.03201   0.02730  -0.1583  0.0008  0.9194  -10.9428   0.0000   0.2904
  16.500   2.2777   0.03893   0.03441  -0.1523  0.0008  1.0000  -12.1182   0.0000   0.2844
  17.000   2.2840   0.04313   0.03867  -0.1493  0.0008  1.0000  -12.6711   0.0000   0.2816
  18.000   2.2903   0.05324   0.04892  -0.1447  0.0007  1.0000  -13.7525   0.0000   0.2767
  18.500   2.2888   0.05921   0.05497  -0.1429  0.0006  1.0000  -14.2629   0.0000   0.2745


