XFLR5 v6.02 Beta

 Calculated polar for: WORTMANN FX 63-137

 1 1 Reynolds number fixed          Mach number fixed         

 xtrf =   1.000 (top)        1.000 (bottom)
 Mach =   0.000     Re =    22.000 e 6     Ncrit =   9.000

  alpha     CL        CD       CDp       CM    Top Xtr Bot Xtr   Cpmin    Chinge    XCp    
 ------- -------- --------- --------- -------- ------- ------- -------- --------- ---------
 -21.000  -1.1146   0.05663   0.05375  -0.1460  0.6861  0.0027  -24.5852   0.0000   0.0838
 -20.500  -1.1535   0.04515   0.04210  -0.1554  0.6789  0.0027  -25.0009   0.0000   0.0821
 -20.000  -1.1723   0.03670   0.03351  -0.1627  0.6609  0.0028  -25.0013   0.0000   0.0800
 -19.000  -1.1698   0.02605   0.02256  -0.1712  0.6070  0.0029  -24.2158   0.0000   0.0754
 -18.500  -1.1554   0.02228   0.01871  -0.1738  0.5966  0.0030  -23.5931   0.0000   0.0726
 -18.000  -1.1349   0.01912   0.01550  -0.1763  0.5949  0.0031  -22.8815   0.0000   0.0689
 -17.000  -1.0407   0.01478   0.01083  -0.1862  0.4992  0.0033  -20.8298   0.0000   0.0467
 -16.500  -0.9889   0.01381   0.00974  -0.1879  0.4653  0.0034  -19.7357   0.0000   0.0362
 -16.000  -0.9352   0.01301   0.00886  -0.1892  0.4425  0.0034  -18.6416   0.0000   0.0242
 -15.500  -0.8798   0.01231   0.00808  -0.1905  0.4282  0.0035  -17.5519   0.0000   0.0104
 -15.000  -0.8237   0.01169   0.00739  -0.1916  0.4151  0.0036  -16.4822   0.0000  -0.0056
 -14.500  -0.7664   0.01112   0.00678  -0.1928  0.4025  0.0036  -15.4296   0.0000  -0.0244
 -14.000  -0.7109   0.01073   0.00623  -0.1934  0.3408  0.0037  -14.4241   0.0000  -0.0449
 -13.500  -0.6542   0.01035   0.00571  -0.1942  0.2988  0.0037  -13.4559   0.0000  -0.0700
 -13.000  -0.5957   0.00993   0.00525  -0.1952  0.2861  0.0038  -12.5583   0.0000  -0.1011
 -12.500  -0.5368   0.00954   0.00482  -0.1962  0.2783  0.0038  -11.6824   0.0000  -0.1397
 -12.000  -0.4784   0.00925   0.00445  -0.1971  0.2502  0.0039  -10.8377   0.0000  -0.1870
 -11.500  -0.4180   0.00887   0.00408  -0.1982  0.2767  0.0039  -9.9895   0.0000  -0.2507
 -11.000  -0.3601   0.00869   0.00377  -0.1988  0.2219  0.0040  -9.2018   0.0000  -0.3308
 -10.000  -0.2416   0.00826   0.00321  -0.2004  0.1888  0.0041  -7.6931   0.0000  -0.6164
  -9.500  -0.1819   0.00805   0.00296  -0.2013  0.1802  0.0041  -6.9902   0.0000  -0.9021
  -9.000  -0.1219   0.00784   0.00272  -0.2022  0.1699  0.0041  -6.3363   0.0000  -1.4721
  -8.500  -0.0619   0.00767   0.00252  -0.2031  0.1691  0.0042  -5.6899   0.0000  -3.1468
  -8.000  -0.0019   0.00751   0.00234  -0.2039  0.1683  0.0042  -5.0763   0.0000  -112.5092
  -7.500   0.0573   0.00744   0.00220  -0.2046  0.1440  0.0042  -4.4984   0.0000   3.9253
  -7.000   0.1170   0.00734   0.00206  -0.2053  0.1399  0.0043  -4.0313   0.0000   2.0534
  -6.500   0.1767   0.00726   0.00195  -0.2060  0.1353  0.0043  -3.6509   0.0000   1.4455
  -6.000   0.2364   0.00718   0.00186  -0.2067  0.1302  0.0043  -3.2828   0.0000   1.1448
  -5.500   0.2960   0.00713   0.00179  -0.2074  0.1249  0.0044  -2.9237   0.0000   0.9655
  -5.000   0.3555   0.00709   0.00174  -0.2081  0.1238  0.0044  -2.5811   0.0000   0.8464
  -4.500   0.4149   0.00706   0.00169  -0.2087  0.1234  0.0045  -2.2572   0.0000   0.7615
  -3.000   0.5905   0.00720   0.00171  -0.2101  0.0946  0.0066  -1.3713   0.0000   0.6093
  -2.500   0.6492   0.00723   0.00173  -0.2106  0.0913  0.0075  -1.1031   0.0000   0.5768
  -2.000   0.7076   0.00728   0.00177  -0.2111  0.0858  0.0078  -0.9530   0.0000   0.5497
  -1.500   0.7660   0.00733   0.00182  -0.2115  0.0843  0.0095  -1.0029   0.0000   0.5266
  -1.000   0.8243   0.00739   0.00187  -0.2120  0.0836  0.0150  -1.0552   0.0000   0.5068
  -0.500   0.8821   0.00748   0.00195  -0.2123  0.0827  0.0154  -1.1076   0.0000   0.4896
   0.000   0.9387   0.00766   0.00209  -0.2124  0.0713  0.0157  -1.1595   0.0000   0.4745
   0.500   0.9949   0.00787   0.00223  -0.2125  0.0573  0.0160  -1.2123   0.0000   0.4610
   1.000   1.0527   0.00792   0.00231  -0.2129  0.0651  0.0171  -1.2762   0.0000   0.4489
   1.500   1.1090   0.00810   0.00246  -0.2130  0.0614  0.0175  -1.3509   0.0000   0.4380
   2.000   1.1651   0.00828   0.00261  -0.2131  0.0524  0.0226  -1.4265   0.0000   0.4282
   2.500   1.2160   0.00889   0.00308  -0.2121  0.0043  0.0377  -1.5103   0.0000   0.4190
   3.000   1.2709   0.00914   0.00331  -0.2120  0.0032  0.0389  -1.6208   0.0000   0.4106
   3.500   1.3255   0.00939   0.00355  -0.2118  0.0026  0.0483  -1.7373   0.0000   0.4029
   4.500   1.4335   0.00993   0.00408  -0.2113  0.0024  0.0669  -2.0494   0.0000   0.3890
   5.000   1.4866   0.01023   0.00437  -0.2109  0.0018  0.0782  -2.2292   0.0000   0.3827
   5.500   1.5395   0.01054   0.00469  -0.2105  0.0014  0.1036  -2.4134   0.0000   0.3768
   6.000   1.5923   0.01085   0.00506  -0.2101  0.0013  0.1702  -2.6023   0.0000   0.3712
   6.500   1.6438   0.01121   0.00543  -0.2095  0.0012  0.2002  -2.7936   0.0000   0.3659
   7.000   1.6950   0.01158   0.00584  -0.2089  0.0012  0.2484  -2.9890   0.0000   0.3608
   7.500   1.7447   0.01199   0.00626  -0.2080  0.0012  0.2773  -3.1861   0.0000   0.3559
   8.000   1.7919   0.01247   0.00671  -0.2066  0.0012  0.2558  -3.3829   0.0000   0.3511
   8.500   1.8419   0.01288   0.00725  -0.2059  0.0012  0.3746  -3.5887   0.0000   0.3467
   9.000   1.8875   0.01340   0.00778  -0.2043  0.0012  0.3997  -3.8331   0.0000   0.3423
   9.500   1.9313   0.01395   0.00837  -0.2024  0.0011  0.4331  -4.1033   0.0000   0.3379
  10.000   1.9665   0.01455   0.00906  -0.1988  0.0011  0.4997  -4.5926   0.0000   0.3332
  10.500   1.9974   0.01528   0.00980  -0.1944  0.0011  0.5085  -5.0980   0.0000   0.3285
  11.000   2.0284   0.01612   0.01068  -0.1903  0.0011  0.5287  -5.6257   0.0000   0.3240
  11.500   2.0588   0.01709   0.01169  -0.1863  0.0011  0.5597  -6.1713   0.0000   0.3197
  12.000   2.0861   0.01823   0.01287  -0.1820  0.0010  0.5754  -6.7247   0.0000   0.3154
  12.500   2.1140   0.01953   0.01424  -0.1781  0.0010  0.6166  -7.3015   0.0000   0.3114
  13.000   2.1400   0.02103   0.01580  -0.1743  0.0010  0.6516  -7.8827   0.0000   0.3074
  13.500   2.1627   0.02278   0.01763  -0.1703  0.0009  0.6901  -8.4601   0.0000   0.3036
  14.000   2.1822   0.02490   0.01982  -0.1662  0.0009  0.7180  -9.0303   0.0000   0.2999
  14.500   2.2022   0.02727   0.02228  -0.1628  0.0009  0.7674  -9.6219   0.0000   0.2965
  15.000   2.2209   0.02999   0.02511  -0.1596  0.0009  0.8271  -10.2175   0.0000   0.2933
  16.000   2.2541   0.03644   0.03185  -0.1543  0.0008  1.0000  -11.4251   0.0000   0.2873
  16.500   2.2649   0.04009   0.03556  -0.1514  0.0008  1.0000  -12.0019   0.0000   0.2844
  17.000   2.2745   0.04406   0.03957  -0.1487  0.0008  1.0000  -12.5813   0.0000   0.2816
  17.500   2.2793   0.04884   0.04443  -0.1463  0.0007  1.0000  -13.1291   0.0000   0.2791
  18.000   2.2809   0.05426   0.04992  -0.1442  0.0007  1.0000  -13.6581   0.0000   0.2767
  18.500   2.2794   0.06026   0.05600  -0.1425  0.0007  1.0000  -14.1651   0.0000   0.2746
  19.000   2.2763   0.06660   0.06243  -0.1413  0.0006  1.0000  -14.6635   0.0000   0.2726
  19.500   2.2789   0.07217   0.06806  -0.1403  0.0005  1.0000  -15.2269   0.0000   0.2707


