XFLR5 v6.02 Beta

 Calculated polar for: WORTMANN FX 63-137

 1 1 Reynolds number fixed          Mach number fixed         

 xtrf =   1.000 (top)        1.000 (bottom)
 Mach =   0.000     Re =    55.750 e 6     Ncrit =   9.000

  alpha     CL        CD       CDp       CM    Top Xtr Bot Xtr   Cpmin    Chinge    XCp    
 ------- -------- --------- --------- -------- ------- ------- -------- --------- ---------
 -23.500  -0.4178   0.22865   0.22623  -0.0477  0.2342  0.0013  -5.1398   0.0000   0.0871
 -23.000  -0.4001   0.22419   0.22175  -0.0515  0.2260  0.0013  -4.9382   0.0000   0.0724
 -22.500  -0.3820   0.22015   0.21769  -0.0553  0.2220  0.0013  -4.7412   0.0000   0.0562
 -22.000  -0.3637   0.21633   0.21386  -0.0589  0.2216  0.0013  -4.5485   0.0000   0.0384
 -21.500  -0.3462   0.21112   0.20863  -0.0625  0.2213  0.0013  -4.3680   0.0000   0.0192
 -21.000  -0.3290   0.20580   0.20326  -0.0659  0.1912  0.0013  -4.1945   0.0000  -0.0015
 -20.500  -0.3116   0.20039   0.19782  -0.0694  0.1701  0.0013  -4.0266   0.0000  -0.0246
 -20.000  -0.2942   0.19490   0.19231  -0.0728  0.1697  0.0013  -3.8657   0.0000  -0.0506
 -19.500  -0.2769   0.18933   0.18673  -0.0761  0.1702  0.0013  -3.7136   0.0000  -0.0796
 -19.000  -0.2597   0.18369   0.18107  -0.0794  0.1698  0.0013  -3.5710   0.0000  -0.1121
 -18.500  -0.2428   0.17794   0.17531  -0.0826  0.1696  0.0013  -3.4434   0.0000  -0.1487
 -18.000  -0.2263   0.17203   0.16938  -0.0857  0.1693  0.0014  -3.3384   0.0000  -0.1899
 -17.500  -0.3701   0.12536   0.12269  -0.1020  0.1893  0.0027  -8.4538   0.0000  -0.0743
 -17.000  -0.3573   0.11956   0.11687  -0.1053  0.1700  0.0028  -8.2571   0.0000  -0.0933
 -16.500  -0.3463   0.11347   0.11077  -0.1087  0.1696  0.0029  -8.0974   0.0000  -0.1124
 -16.000  -0.3405   0.10682   0.10412  -0.1124  0.1694  0.0030  -8.0537   0.0000  -0.1278
 -15.000  -0.8178   0.01023   0.00610  -0.1952  0.2807  0.0024  -16.5344   0.0000  -0.0118
 -14.500  -0.7610   0.00980   0.00557  -0.1960  0.2339  0.0025  -15.4860   0.0000  -0.0306
 -14.000  -0.7026   0.00935   0.00509  -0.1970  0.2243  0.0027  -14.4510   0.0000  -0.0536
 -13.500  -0.6438   0.00895   0.00466  -0.1980  0.2209  0.0028  -13.5266   0.0000  -0.0810
 -12.500  -0.5262   0.00828   0.00388  -0.1998  0.1699  0.0032  -11.7616   0.0000  -0.1543
 -12.000  -0.4667   0.00796   0.00354  -0.2008  0.1691  0.0035  -10.9111   0.0000  -0.2060
 -10.500  -0.2878   0.00726   0.00274  -0.2034  0.1454  0.0040  -8.5156   0.0000  -0.4901
 -10.000  -0.2281   0.00709   0.00254  -0.2041  0.1399  0.0040  -7.7761   0.0000  -0.6840
  -9.500  -0.1684   0.00694   0.00236  -0.2049  0.1346  0.0041  -7.0654   0.0000  -1.0163
  -9.000  -0.1086   0.00680   0.00220  -0.2057  0.1247  0.0041  -6.3843   0.0000  -1.7157
  -8.500  -0.0487   0.00668   0.00205  -0.2064  0.1239  0.0041  -5.7305   0.0000  -4.1367
  -8.000   0.0112   0.00657   0.00193  -0.2072  0.1236  0.0042  -5.1062   0.0000  19.4096
  -7.500   0.0710   0.00647   0.00182  -0.2079  0.1233  0.0042  -4.5115   0.0000   3.2657
  -6.500   0.1905   0.00632   0.00164  -0.2093  0.1227  0.0043  -3.6535   0.0000   1.3763
  -6.000   0.2495   0.00632   0.00159  -0.2098  0.1027  0.0043  -3.2792   0.0000   1.1102
  -5.500   0.3089   0.00630   0.00154  -0.2104  0.0997  0.0044  -2.9187   0.0000   0.9455
  -5.000   0.3682   0.00628   0.00150  -0.2110  0.0969  0.0044  -2.5733   0.0000   0.8339
  -4.500   0.4274   0.00627   0.00148  -0.2116  0.0933  0.0045  -2.2432   0.0000   0.7533
  -4.000   0.4865   0.00628   0.00147  -0.2121  0.0848  0.0045  -1.9290   0.0000   0.6923
  -3.500   0.5456   0.00629   0.00147  -0.2127  0.0843  0.0046  -1.6304   0.0000   0.6446
  -3.000   0.6045   0.00631   0.00148  -0.2132  0.0842  0.0046  -1.3476   0.0000   0.6062
  -2.500   0.6633   0.00634   0.00150  -0.2137  0.0839  0.0046  -1.0800   0.0000   0.5746
  -1.500   0.7786   0.00658   0.00163  -0.2143  0.0490  0.0061  -1.0112   0.0000   0.5257
  -1.000   0.8365   0.00667   0.00170  -0.2146  0.0462  0.0071  -1.0634   0.0000   0.5062
  -0.500   0.8944   0.00676   0.00178  -0.2150  0.0437  0.0079  -1.1160   0.0000   0.4892
   0.000   0.9520   0.00686   0.00187  -0.2153  0.0414  0.0085  -1.1688   0.0000   0.4743
   0.500   1.0096   0.00696   0.00196  -0.2156  0.0391  0.0154  -1.2237   0.0000   0.4610
   1.000   1.0670   0.00707   0.00206  -0.2159  0.0421  0.0170  -1.2885   0.0000   0.4490
   1.500   1.1239   0.00719   0.00217  -0.2161  0.0410  0.0171  -1.3641   0.0000   0.4383
   2.500   1.2334   0.00780   0.00267  -0.2157  0.0018  0.0372  -1.5285   0.0000   0.4194
   3.500   1.3443   0.00822   0.00305  -0.2156  0.0013  0.0400  -1.7615   0.0000   0.4035
   4.000   1.3991   0.00845   0.00326  -0.2155  0.0013  0.0431  -1.9065   0.0000   0.3964
   4.500   1.4536   0.00869   0.00349  -0.2153  0.0013  0.0492  -2.0849   0.0000   0.3898
   6.500   1.6671   0.00982   0.00462  -0.2140  0.0012  0.1248  -2.8404   0.0000   0.3668
   7.000   1.7190   0.01014   0.00494  -0.2135  0.0012  0.1463  -3.0387   0.0000   0.3618
   7.500   1.7700   0.01050   0.00528  -0.2128  0.0012  0.1549  -3.2397   0.0000   0.3569
   8.000   1.8201   0.01088   0.00565  -0.2119  0.0012  0.1515  -3.4435   0.0000   0.3522
   8.500   1.8700   0.01127   0.00606  -0.2111  0.0012  0.1946  -3.6510   0.0000   0.3478
   9.000   1.9191   0.01168   0.00650  -0.2102  0.0012  0.2490  -3.9248   0.0000   0.3434
   9.500   1.9659   0.01214   0.00696  -0.2088  0.0012  0.2559  -4.2873   0.0000   0.3392
  10.000   2.0133   0.01259   0.00749  -0.2076  0.0011  0.3468  -4.8708   0.0000   0.3351
  10.500   2.0574   0.01312   0.00802  -0.2058  0.0011  0.3701  -5.4670   0.0000   0.3310
  11.000   2.0937   0.01371   0.00862  -0.2024  0.0011  0.3753  -6.0474   0.0000   0.3267
  11.500   2.1216   0.01438   0.00930  -0.1973  0.0011  0.3850  -6.5969   0.0000   0.3220
  12.000   2.1510   0.01517   0.01010  -0.1928  0.0010  0.3868  -7.1781   0.0000   0.3176
  12.500   2.1809   0.01607   0.01103  -0.1887  0.0010  0.4015  -7.7842   0.0000   0.3135
  13.000   2.2088   0.01713   0.01216  -0.1845  0.0010  0.4664  -8.3970   0.0000   0.3094
  14.000   2.2584   0.01985   0.01494  -0.1758  0.0008  0.4990  -9.6386   0.0000   0.3015
  14.500   2.2808   0.02150   0.01665  -0.1717  0.0008  0.5351  -10.2678   0.0000   0.2978
  15.500   2.2701   0.02947   0.02492  -0.1582  0.0017  0.5886  -11.0523   0.0000   0.2899
  16.000   2.2861   0.03243   0.02795  -0.1551  0.0022  0.6277  -11.7019   0.0000   0.2868
  16.500   2.2948   0.03612   0.03172  -0.1517  0.0025  0.6502  -12.2675   0.0000   0.2837
  17.000   2.3016   0.04011   0.03579  -0.1486  0.0028  0.6824  -12.8249   0.0000   0.2809
  17.500   2.3028   0.04499   0.04076  -0.1456  0.0034  0.6998  -13.3394   0.0000   0.2782
  18.000   2.3110   0.04956   0.04543  -0.1435  0.0038  0.7436  -13.9273   0.0000   0.2757
  18.500   2.3098   0.05545   0.05142  -0.1417  0.0041  0.7794  -14.4386   0.0000   0.2735
  19.000   2.3068   0.06194   0.05803  -0.1405  0.0042  0.8281  -14.9386   0.0000   0.2716
  19.500   2.3087   0.06932   0.06568  -0.1414  0.0044  1.0000  -15.4939   0.0000   0.2703


