XFLR5 v6.02 Beta

 Calculated polar for: WORTMANN FX 63-137

 1 1 Reynolds number fixed          Mach number fixed         

 xtrf =   1.000 (top)        1.000 (bottom)
 Mach =   0.000     Re =    55.250 e 6     Ncrit =   9.000

  alpha     CL        CD       CDp       CM    Top Xtr Bot Xtr   Cpmin    Chinge    XCp    
 ------- -------- --------- --------- -------- ------- ------- -------- --------- ---------
 -22.500  -1.1477   0.06971   0.06668  -0.1396  0.4348  0.0015  -26.2761   0.0000   0.0891
 -22.000  -1.2342   0.05215   0.04897  -0.1534  0.4659  0.0014  -27.6500   0.0000   0.0893
 -21.000  -1.2749   0.03580   0.03237  -0.1662  0.4312  0.0015  -27.6578   0.0000   0.0869
 -20.500  -1.2826   0.02969   0.02618  -0.1709  0.4280  0.0015  -27.3859   0.0000   0.0857
 -20.000  -1.2730   0.02561   0.02203  -0.1736  0.4239  0.0015  -26.8059   0.0000   0.0839
 -19.500  -1.2604   0.02180   0.01817  -0.1762  0.4193  0.0016  -26.1740   0.0000   0.0819
 -19.000  -1.2435   0.01890   0.01523  -0.1774  0.4143  0.0016  -25.4606   0.0000   0.0802
 -18.500  -1.2016   0.01642   0.01270  -0.1821  0.4075  0.0017  -24.4415   0.0000   0.0722
 -18.000  -1.1485   0.01452   0.01065  -0.1876  0.3582  0.0018  -23.2949   0.0000   0.0611
 -16.500  -0.9879   0.01201   0.00799  -0.1919  0.3073  0.0020  -19.8505   0.0000   0.0319
 -16.000  -0.9320   0.01137   0.00730  -0.1930  0.3002  0.0022  -18.7259   0.0000   0.0194
 -15.500  -0.8753   0.01078   0.00668  -0.1941  0.2956  0.0023  -17.6191   0.0000   0.0050
 -15.000  -0.8179   0.01024   0.00611  -0.1952  0.2825  0.0024  -16.5347   0.0000  -0.0117
 -14.500  -0.7611   0.00982   0.00558  -0.1960  0.2345  0.0026  -15.4864   0.0000  -0.0305
 -14.000  -0.7027   0.00936   0.00510  -0.1970  0.2249  0.0027  -14.4515   0.0000  -0.0535
 -13.500  -0.6439   0.00896   0.00467  -0.1980  0.2210  0.0028  -13.5272   0.0000  -0.0809
 -12.500  -0.5263   0.00829   0.00389  -0.1998  0.1700  0.0032  -11.7620   0.0000  -0.1542
 -12.000  -0.4668   0.00797   0.00354  -0.2008  0.1691  0.0035  -10.9114   0.0000  -0.2058
 -11.500  -0.4069   0.00767   0.00322  -0.2017  0.1692  0.0038  -10.0811   0.0000  -0.2731
 -11.000  -0.3472   0.00744   0.00297  -0.2026  0.1690  0.0039  -9.2820   0.0000  -0.3633
 -10.500  -0.2879   0.00727   0.00274  -0.2033  0.1457  0.0040  -8.5158   0.0000  -0.4897
 -10.000  -0.2282   0.00710   0.00254  -0.2041  0.1403  0.0040  -7.7763   0.0000  -0.6834
  -9.500  -0.1685   0.00695   0.00236  -0.2049  0.1348  0.0041  -7.0657   0.0000  -1.0152
  -9.000  -0.1087   0.00681   0.00220  -0.2056  0.1250  0.0041  -6.3846   0.0000  -1.7132
  -8.500  -0.0488   0.00668   0.00206  -0.2064  0.1239  0.0041  -5.7308   0.0000  -4.1251
  -8.000   0.0110   0.00657   0.00193  -0.2071  0.1236  0.0042  -5.1065   0.0000  19.6187
  -7.500   0.0709   0.00648   0.00182  -0.2079  0.1233  0.0042  -4.5119   0.0000   3.2705
  -6.500   0.1904   0.00633   0.00164  -0.2092  0.1227  0.0043  -3.6537   0.0000   1.3769
  -6.000   0.2494   0.00633   0.00159  -0.2098  0.1028  0.0043  -3.2794   0.0000   1.1105
  -5.500   0.3088   0.00630   0.00154  -0.2104  0.0998  0.0044  -2.9189   0.0000   0.9457
  -5.000   0.3681   0.00629   0.00150  -0.2110  0.0971  0.0044  -2.5735   0.0000   0.8340
  -4.500   0.4273   0.00628   0.00148  -0.2116  0.0935  0.0045  -2.2434   0.0000   0.7534
  -4.000   0.4864   0.00629   0.00147  -0.2121  0.0849  0.0045  -1.9293   0.0000   0.6924
  -3.500   0.5455   0.00630   0.00147  -0.2127  0.0843  0.0046  -1.6307   0.0000   0.6446
  -3.000   0.6044   0.00632   0.00148  -0.2132  0.0842  0.0046  -1.3478   0.0000   0.6062
  -2.500   0.6632   0.00635   0.00150  -0.2137  0.0839  0.0046  -1.0802   0.0000   0.5746
  -2.000   0.7217   0.00639   0.00153  -0.2141  0.0827  0.0052  -0.9619   0.0000   0.5481
  -1.500   0.7785   0.00659   0.00164  -0.2142  0.0491  0.0061  -1.0111   0.0000   0.5257
  -1.000   0.8364   0.00668   0.00170  -0.2146  0.0464  0.0072  -1.0633   0.0000   0.5062
  -0.500   0.8942   0.00677   0.00178  -0.2149  0.0438  0.0079  -1.1159   0.0000   0.4892
   0.000   0.9519   0.00687   0.00187  -0.2153  0.0415  0.0085  -1.1687   0.0000   0.4743
   0.500   1.0095   0.00697   0.00196  -0.2156  0.0392  0.0154  -1.2236   0.0000   0.4610
   1.000   1.0668   0.00707   0.00206  -0.2159  0.0422  0.0170  -1.2884   0.0000   0.4490
   1.500   1.1238   0.00720   0.00218  -0.2161  0.0411  0.0171  -1.3640   0.0000   0.4383
   3.500   1.3441   0.00823   0.00305  -0.2156  0.0013  0.0401  -1.7613   0.0000   0.4035
   4.000   1.3989   0.00846   0.00327  -0.2155  0.0014  0.0432  -1.9062   0.0000   0.3964
   4.500   1.4534   0.00870   0.00350  -0.2153  0.0013  0.0493  -2.0846   0.0000   0.3897
   5.000   1.5076   0.00896   0.00375  -0.2151  0.0013  0.0667  -2.2675   0.0000   0.3835
   5.500   1.5610   0.00924   0.00401  -0.2148  0.0013  0.0760  -2.4543   0.0000   0.3776
   6.000   1.6143   0.00952   0.00431  -0.2145  0.0012  0.1125  -2.6454   0.0000   0.3721
   6.500   1.6669   0.00983   0.00462  -0.2140  0.0012  0.1267  -2.8400   0.0000   0.3668
   7.000   1.7188   0.01016   0.00495  -0.2135  0.0012  0.1464  -3.0383   0.0000   0.3617
   7.500   1.7698   0.01052   0.00529  -0.2128  0.0012  0.1555  -3.2392   0.0000   0.3569
   8.000   1.8198   0.01090   0.00566  -0.2119  0.0012  0.1521  -3.4430   0.0000   0.3522
   8.500   1.8697   0.01128   0.00607  -0.2111  0.0012  0.1947  -3.6504   0.0000   0.3477
   9.000   1.9188   0.01169   0.00651  -0.2101  0.0012  0.2490  -3.9239   0.0000   0.3434
   9.500   1.9656   0.01216   0.00697  -0.2087  0.0012  0.2571  -4.2855   0.0000   0.3392
  10.500   2.0570   0.01313   0.00804  -0.2057  0.0011  0.3703  -5.4645   0.0000   0.3310
  11.000   2.0927   0.01373   0.00864  -0.2022  0.0011  0.3768  -6.0414   0.0000   0.3266
  11.500   2.1210   0.01440   0.00932  -0.1972  0.0011  0.3866  -6.5931   0.0000   0.3220
  12.000   2.1504   0.01520   0.01012  -0.1927  0.0010  0.3884  -7.1740   0.0000   0.3176
  12.500   2.1803   0.01610   0.01106  -0.1885  0.0010  0.4043  -7.7794   0.0000   0.3134
  13.000   2.2081   0.01716   0.01219  -0.1843  0.0010  0.4674  -8.3916   0.0000   0.3094
  14.000   2.2578   0.01988   0.01497  -0.1757  0.0008  0.4993  -9.6336   0.0000   0.3015
  14.500   2.2801   0.02154   0.01669  -0.1716  0.0008  0.5389  -10.2622   0.0000   0.2978
  15.500   2.2694   0.02954   0.02499  -0.1582  0.0017  0.5915  -11.0449   0.0000   0.2899
  16.000   2.2847   0.03255   0.02807  -0.1550  0.0021  0.6282  -11.6887   0.0000   0.2868
  16.500   2.2940   0.03621   0.03180  -0.1516  0.0025  0.6526  -12.2603   0.0000   0.2838
  17.000   2.3005   0.04024   0.03593  -0.1485  0.0028  0.6870  -12.8154   0.0000   0.2809
  17.500   2.3015   0.04513   0.04090  -0.1455  0.0033  0.7032  -13.3281   0.0000   0.2782
  18.000   2.3104   0.04965   0.04551  -0.1435  0.0038  0.7467  -13.9219   0.0000   0.2757
  18.500   2.3092   0.05554   0.05152  -0.1417  0.0040  0.7856  -14.4323   0.0000   0.2735
  19.000   2.3061   0.06205   0.05815  -0.1405  0.0042  0.8321  -14.9316   0.0000   0.2716
  19.500   2.3077   0.06944   0.06580  -0.1414  0.0044  1.0000  -15.4840   0.0000   0.2704


