XFLR5 v6.02 Beta

 Calculated polar for: WORTMANN FX 63-137

 1 1 Reynolds number fixed          Mach number fixed         

 xtrf =   1.000 (top)        1.000 (bottom)
 Mach =   0.000     Re =    64.500 e 6     Ncrit =   9.000

  alpha     CL        CD       CDp       CM    Top Xtr Bot Xtr   Cpmin    Chinge    XCp    
 ------- -------- --------- --------- -------- ------- ------- -------- --------- ---------
 -22.500  -0.3795   0.22042   0.21801  -0.0558  0.2211  0.0013  -4.6522   0.0000   0.0537
 -21.500  -1.2961   0.03872   0.03535  -0.1646  0.4131  0.0014  -28.4494   0.0000   0.0891
 -21.000  -1.3033   0.03259   0.02914  -0.1692  0.4096  0.0014  -28.1735   0.0000   0.0879
 -20.500  -1.2995   0.02789   0.02439  -0.1725  0.4060  0.0014  -27.6878   0.0000   0.0864
 -20.000  -1.2914   0.02361   0.02005  -0.1756  0.4027  0.0014  -27.1258   0.0000   0.0846
 -19.500  -1.2748   0.02040   0.01678  -0.1772  0.4018  0.0014  -26.4147   0.0000   0.0829
 -19.000  -1.2497   0.01766   0.01401  -0.1797  0.4013  0.0015  -25.5927   0.0000   0.0792
 -18.000  -1.1490   0.01398   0.01014  -0.1888  0.3380  0.0016  -23.3269   0.0000   0.0602
 -17.500  -1.0968   0.01312   0.00921  -0.1902  0.3076  0.0017  -22.1671   0.0000   0.0517
 -17.000  -1.0426   0.01237   0.00841  -0.1914  0.3002  0.0018  -21.0076   0.0000   0.0420
 -16.500  -0.9873   0.01170   0.00770  -0.1926  0.2931  0.0019  -19.8594   0.0000   0.0310
 -16.000  -0.9310   0.01109   0.00707  -0.1937  0.2862  0.0020  -18.7278   0.0000   0.0184
 -15.500  -0.8739   0.01053   0.00648  -0.1948  0.2814  0.0021  -17.6165   0.0000   0.0039
 -14.500  -0.7595   0.00962   0.00545  -0.1966  0.2233  0.0023  -15.4788   0.0000  -0.0319
 -14.000  -0.7010   0.00918   0.00499  -0.1976  0.2216  0.0025  -14.4425   0.0000  -0.0550
 -13.500  -0.6422   0.00880   0.00457  -0.1985  0.2208  0.0026  -13.5171   0.0000  -0.0826
 -13.000  -0.5837   0.00847   0.00418  -0.1994  0.1919  0.0027  -12.6246   0.0000  -0.1155
 -12.500  -0.5246   0.00815   0.00382  -0.2003  0.1692  0.0029  -11.7534   0.0000  -0.1564
 -12.000  -0.4650   0.00783   0.00349  -0.2012  0.1690  0.0032  -10.9044   0.0000  -0.2086
 -11.000  -0.3457   0.00731   0.00289  -0.2030  0.1452  0.0038  -9.2827   0.0000  -0.3672
 -10.500  -0.2860   0.00711   0.00266  -0.2038  0.1402  0.0039  -8.5126   0.0000  -0.4963
 -10.000  -0.2263   0.00694   0.00246  -0.2046  0.1351  0.0040  -7.7717   0.0000  -0.6938
  -9.500  -0.1664   0.00679   0.00229  -0.2054  0.1300  0.0041  -7.0603   0.0000  -1.0339
  -9.000  -0.1066   0.00666   0.00213  -0.2062  0.1239  0.0041  -6.3787   0.0000  -1.7561
  -8.500  -0.0467   0.00653   0.00200  -0.2069  0.1236  0.0041  -5.7247   0.0000  -4.3298
  -8.000   0.0131   0.00643   0.00188  -0.2076  0.1234  0.0042  -5.1003   0.0000  16.6047
  -7.500   0.0729   0.00634   0.00177  -0.2084  0.1230  0.0042  -4.5057   0.0000   3.1922
  -7.000   0.1327   0.00626   0.00168  -0.2091  0.1228  0.0043  -4.0427   0.0000   1.8685
  -6.500   0.1919   0.00624   0.00161  -0.2096  0.1030  0.0043  -3.6527   0.0000   1.3700
  -6.000   0.2513   0.00620   0.00155  -0.2102  0.1000  0.0043  -3.2766   0.0000   1.1058
  -5.500   0.3107   0.00618   0.00150  -0.2108  0.0972  0.0044  -2.9158   0.0000   0.9428
  -5.000   0.3701   0.00616   0.00147  -0.2114  0.0947  0.0044  -2.5702   0.0000   0.8321
  -4.500   0.4293   0.00615   0.00144  -0.2120  0.0892  0.0044  -2.2399   0.0000   0.7521
  -4.000   0.4885   0.00615   0.00143  -0.2126  0.0843  0.0045  -1.9254   0.0000   0.6915
  -3.500   0.5476   0.00616   0.00143  -0.2131  0.0842  0.0045  -1.6268   0.0000   0.6440
  -3.000   0.6065   0.00618   0.00144  -0.2137  0.0841  0.0046  -1.3439   0.0000   0.6057
  -2.500   0.6653   0.00621   0.00146  -0.2142  0.0839  0.0046  -1.0764   0.0000   0.5742
  -2.000   0.7224   0.00639   0.00155  -0.2143  0.0497  0.0049  -0.9621   0.0000   0.5480
  -1.500   0.7805   0.00647   0.00160  -0.2147  0.0462  0.0057  -1.0125   0.0000   0.5255
  -1.000   0.8385   0.00655   0.00167  -0.2151  0.0436  0.0067  -1.0648   0.0000   0.5061
  -0.500   0.8964   0.00663   0.00174  -0.2154  0.0414  0.0074  -1.1174   0.0000   0.4892
   0.000   0.9541   0.00673   0.00182  -0.2157  0.0391  0.0079  -1.1703   0.0000   0.4742
   0.500   1.0117   0.00683   0.00192  -0.2160  0.0382  0.0098  -1.2253   0.0000   0.4610
   1.000   1.0692   0.00693   0.00201  -0.2164  0.0402  0.0170  -1.2904   0.0000   0.4491
   1.500   1.1262   0.00705   0.00213  -0.2166  0.0393  0.0171  -1.3661   0.0000   0.4383
   2.000   1.1828   0.00720   0.00226  -0.2168  0.0373  0.0208  -1.4424   0.0000   0.4285
   2.500   1.2359   0.00764   0.00261  -0.2162  0.0015  0.0371  -1.5311   0.0000   0.4195
   3.500   1.3469   0.00805   0.00298  -0.2161  0.0013  0.0392  -1.7648   0.0000   0.4036
   4.000   1.4018   0.00828   0.00319  -0.2160  0.0013  0.0420  -1.9111   0.0000   0.3965
   4.500   1.4564   0.00852   0.00341  -0.2159  0.0013  0.0478  -2.0899   0.0000   0.3899
   5.500   1.5643   0.00904   0.00391  -0.2154  0.0013  0.0736  -2.4604   0.0000   0.3778
   6.000   1.6177   0.00931   0.00420  -0.2151  0.0012  0.1074  -2.6520   0.0000   0.3722
   6.500   1.6703   0.00962   0.00450  -0.2147  0.0012  0.1194  -2.8470   0.0000   0.3669
   7.000   1.7226   0.00993   0.00482  -0.2142  0.0012  0.1456  -3.0460   0.0000   0.3619
   7.500   1.7738   0.01028   0.00515  -0.2135  0.0012  0.1467  -3.2476   0.0000   0.3571
   8.000   1.8241   0.01065   0.00551  -0.2127  0.0012  0.1464  -3.4521   0.0000   0.3524
   8.500   1.8737   0.01105   0.00589  -0.2118  0.0012  0.1625  -3.6595   0.0000   0.3479
   9.000   1.9231   0.01144   0.00632  -0.2109  0.0012  0.2181  -3.9367   0.0000   0.3436
   9.500   1.9710   0.01188   0.00677  -0.2098  0.0012  0.2492  -4.3162   0.0000   0.3394
  10.000   2.0181   0.01233   0.00727  -0.2085  0.0012  0.3086  -4.9005   0.0000   0.3353
  10.500   2.0630   0.01283   0.00780  -0.2068  0.0011  0.3490  -5.5031   0.0000   0.3312
  11.000   2.1053   0.01339   0.00837  -0.2047  0.0011  0.3692  -6.1207   0.0000   0.3272
  11.500   2.1318   0.01403   0.00901  -0.1993  0.0011  0.3695  -6.6649   0.0000   0.3225
  12.000   2.1605   0.01478   0.00977  -0.1945  0.0010  0.3696  -7.2444   0.0000   0.3180
  12.500   2.1900   0.01565   0.01065  -0.1902  0.0010  0.3712  -7.8501   0.0000   0.3138
  13.000   2.2190   0.01663   0.01170  -0.1861  0.0009  0.4338  -8.4728   0.0000   0.3097
  13.500   2.2460   0.01781   0.01292  -0.1819  0.0009  0.4671  -9.1036   0.0000   0.3058
  16.500   2.3106   0.03462   0.03024  -0.1527  0.0031  0.6203  -12.4038   0.0000   0.2838
  17.000   2.3167   0.03856   0.03424  -0.1494  0.0035  0.6368  -12.9578   0.0000   0.2808
  18.000   2.3217   0.04817   0.04403  -0.1438  0.0043  0.6899  -14.0258   0.0000   0.2756


