XFLR5 v6.02 Beta

 Calculated polar for: WORTMANN FX 63-137

 1 1 Reynolds number fixed          Mach number fixed         

 xtrf =   1.000 (top)        1.000 (bottom)
 Mach =   0.000     Re =    13.750 e 6     Ncrit =   9.000

  alpha     CL        CD       CDp       CM    Top Xtr Bot Xtr   Cpmin    Chinge    XCp    
 ------- -------- --------- --------- -------- ------- ------- -------- --------- ---------
 -20.000  -0.9815   0.06283   0.06013  -0.1387  0.7445  0.0033  -21.3468   0.0000   0.0741
 -19.500  -1.0618   0.04492   0.04200  -0.1534  0.7505  0.0033  -22.5680   0.0000   0.0739
 -19.000  -1.0780   0.03648   0.03336  -0.1610  0.7324  0.0033  -22.5477   0.0000   0.0708
 -18.500  -1.0753   0.03087   0.02763  -0.1658  0.7190  0.0034  -22.1719   0.0000   0.0674
 -18.000  -1.0672   0.02608   0.02268  -0.1699  0.6891  0.0034  -21.6935   0.0000   0.0638
 -17.500  -1.0506   0.02251   0.01901  -0.1723  0.6769  0.0034  -21.0683   0.0000   0.0602
 -17.000  -1.0247   0.01949   0.01590  -0.1754  0.6655  0.0035  -20.3269   0.0000   0.0541
 -16.500  -0.9808   0.01703   0.01328  -0.1804  0.6271  0.0035  -19.3823   0.0000   0.0420
 -16.000  -0.9289   0.01538   0.01141  -0.1850  0.5672  0.0036  -18.3474   0.0000   0.0273
 -15.500  -0.8761   0.01438   0.01030  -0.1868  0.5506  0.0036  -17.2962   0.0000   0.0136
 -15.000  -0.8217   0.01353   0.00938  -0.1884  0.5332  0.0037  -16.2487   0.0000  -0.0022
 -14.000  -0.7104   0.01214   0.00782  -0.1910  0.4994  0.0038  -14.2097   0.0000  -0.0416
 -13.500  -0.6579   0.01177   0.00715  -0.1913  0.4000  0.0038  -13.2698   0.0000  -0.0637
 -13.000  -0.6013   0.01130   0.00656  -0.1923  0.3653  0.0039  -12.3130   0.0000  -0.0930
 -12.500  -0.5435   0.01082   0.00600  -0.1934  0.3500  0.0040  -11.3752   0.0000  -0.1295
 -12.000  -0.4847   0.01035   0.00548  -0.1945  0.3387  0.0040  -10.4605   0.0000  -0.1760
 -11.500  -0.4255   0.00991   0.00500  -0.1957  0.3373  0.0041  -9.5655   0.0000  -0.2360
 -11.000  -0.3658   0.00948   0.00454  -0.1968  0.3364  0.0042  -8.7379   0.0000  -0.3163
 -10.500  -0.3084   0.00927   0.00415  -0.1975  0.2767  0.0042  -7.9830   0.0000  -0.4215
 -10.000  -0.2500   0.00904   0.00378  -0.1983  0.2362  0.0043  -7.2538   0.0000  -0.5787
  -9.500  -0.1900   0.00873   0.00342  -0.1993  0.2227  0.0043  -6.5486   0.0000  -0.8428
  -9.000  -0.1297   0.00846   0.00309  -0.2004  0.2199  0.0044  -5.9053   0.0000  -1.3537
  -4.500   0.4070   0.00756   0.00182  -0.2069  0.1341  0.0045  -2.2336   0.0000   0.7670
  -4.000   0.4662   0.00755   0.00180  -0.2075  0.1282  0.0045  -1.9468   0.0000   0.7016
  -3.500   0.5253   0.00755   0.00179  -0.2081  0.1241  0.0046  -1.6557   0.0000   0.6511
  -3.000   0.5840   0.00758   0.00180  -0.2086  0.1216  0.0085  -1.3783   0.0000   0.6108
  -2.500   0.6416   0.00770   0.00187  -0.2089  0.1015  0.0098  -1.1232   0.0000   0.5780
  -2.000   0.6995   0.00779   0.00191  -0.2093  0.0956  0.0098  -0.9479   0.0000   0.5506
  -1.500   0.7579   0.00784   0.00195  -0.2098  0.0924  0.0149  -0.9973   0.0000   0.5273
  -1.000   0.8158   0.00793   0.00202  -0.2101  0.0862  0.0154  -1.0493   0.0000   0.5073
  -0.500   0.8735   0.00802   0.00210  -0.2105  0.0842  0.0158  -1.1015   0.0000   0.4898
   0.000   0.9309   0.00812   0.00220  -0.2108  0.0834  0.0160  -1.1540   0.0000   0.4746
   0.500   0.9881   0.00824   0.00230  -0.2110  0.0828  0.0163  -1.2071   0.0000   0.4610
   1.000   1.0453   0.00834   0.00241  -0.2113  0.0835  0.0172  -1.2698   0.0000   0.4489
   1.500   1.1020   0.00848   0.00254  -0.2115  0.0829  0.0191  -1.3445   0.0000   0.4379
   2.000   1.1583   0.00863   0.00270  -0.2116  0.0813  0.0255  -1.4201   0.0000   0.4280
   2.500   1.2097   0.00920   0.00311  -0.2108  0.0378  0.0382  -1.5043   0.0000   0.4188
   3.500   1.3150   0.01004   0.00383  -0.2097  0.0039  0.0652  -1.7236   0.0000   0.4026
   4.000   1.3688   0.01032   0.00410  -0.2094  0.0046  0.0667  -1.8543   0.0000   0.3954
   4.500   1.4218   0.01064   0.00440  -0.2089  0.0037  0.0762  -2.0283   0.0000   0.3886
   5.000   1.4745   0.01097   0.00475  -0.2085  0.0029  0.1027  -2.2071   0.0000   0.3823
   5.500   1.5269   0.01130   0.00511  -0.2080  0.0021  0.1448  -2.3897   0.0000   0.3763
   6.000   1.5804   0.01160   0.00553  -0.2079  0.0013  0.2487  -2.5785   0.0000   0.3708
   6.500   1.6320   0.01196   0.00595  -0.2074  0.0013  0.3063  -2.7691   0.0000   0.3655
   7.000   1.6817   0.01239   0.00639  -0.2065  0.0013  0.3346  -2.9610   0.0000   0.3604
   7.500   1.7327   0.01278   0.00691  -0.2060  0.0012  0.4344  -3.1596   0.0000   0.3556
   8.000   1.7771   0.01334   0.00739  -0.2040  0.0012  0.3842  -3.3502   0.0000   0.3506
   8.500   1.8246   0.01383   0.00798  -0.2028  0.0012  0.4674  -3.5505   0.0000   0.3461
   9.000   1.8679   0.01442   0.00860  -0.2008  0.0012  0.4969  -3.7763   0.0000   0.3416
   9.500   1.8993   0.01508   0.00928  -0.1964  0.0012  0.5073  -4.0115   0.0000   0.3365
  10.000   1.9324   0.01583   0.01009  -0.1925  0.0011  0.5473  -4.3934   0.0000   0.3318
  10.500   1.9640   0.01671   0.01101  -0.1885  0.0011  0.5652  -4.8918   0.0000   0.3272
  11.000   1.9950   0.01771   0.01208  -0.1847  0.0011  0.6116  -5.4077   0.0000   0.3228
  11.500   2.0238   0.01888   0.01332  -0.1807  0.0011  0.6449  -5.9311   0.0000   0.3185
  12.000   2.0518   0.02024   0.01475  -0.1769  0.0011  0.6868  -6.4697   0.0000   0.3144
  12.500   2.0767   0.02182   0.01640  -0.1730  0.0010  0.7095  -7.0285   0.0000   0.3104
  13.000   2.0988   0.02368   0.01834  -0.1690  0.0010  0.7467  -7.5728   0.0000   0.3066
  13.500   2.1208   0.02583   0.02059  -0.1655  0.0009  0.8028  -8.1328   0.0000   0.3029
  14.500   2.1620   0.03096   0.02605  -0.1594  0.0009  1.0000  -9.2830   0.0000   0.2963
  15.000   2.1767   0.03410   0.02925  -0.1561  0.0009  1.0000  -9.8357   0.0000   0.2931
  15.500   2.1886   0.03765   0.03286  -0.1530  0.0008  1.0000  -10.3821   0.0000   0.2900
  16.000   2.1973   0.04159   0.03686  -0.1501  0.0008  1.0000  -10.9144   0.0000   0.2871
  16.500   2.2034   0.04609   0.04144  -0.1474  0.0008  1.0000  -11.4373   0.0000   0.2845
  17.000   2.2136   0.05036   0.04577  -0.1453  0.0008  1.0000  -12.0058   0.0000   0.2819
  17.500   2.2172   0.05563   0.05111  -0.1434  0.0008  1.0000  -12.5270   0.0000   0.2795
  18.000   2.2168   0.06158   0.05715  -0.1418  0.0007  1.0000  -13.0195   0.0000   0.2774
  18.500   2.2134   0.06806   0.06373  -0.1407  0.0007  1.0000  -13.4936   0.0000   0.2756
  19.000   2.2069   0.07509   0.07087  -0.1400  0.0007  1.0000  -13.9402   0.0000   0.2740
  19.500   2.2084   0.08075   0.07661  -0.1393  0.0007  1.0000  -14.4710   0.0000   0.2721
  20.000   2.1952   0.08875   0.08471  -0.1394  0.0007  1.0000  -14.8584   0.0000   0.2710


