XFLR5 v6.02 Beta

 Calculated polar for: WORTMANN FX 63-137

 1 1 Reynolds number fixed          Mach number fixed         

 xtrf =   1.000 (top)        1.000 (bottom)
 Mach =   0.000     Re =    56.000 e 6     Ncrit =   9.000

  alpha     CL        CD       CDp       CM    Top Xtr Bot Xtr   Cpmin    Chinge    XCp    
 ------- -------- --------- --------- -------- ------- ------- -------- --------- ---------
 -24.500  -0.4524   0.23809   0.23577  -0.0401  0.2806  0.0013  -5.5617   0.0000   0.1128
 -24.000  -0.4352   0.23332   0.23093  -0.0439  0.2452  0.0013  -5.3470   0.0000   0.1005
 -23.500  -0.4177   0.22866   0.22624  -0.0478  0.2338  0.0013  -5.1364   0.0000   0.0871
 -23.000  -0.4000   0.22420   0.22176  -0.0516  0.2256  0.0013  -4.9351   0.0000   0.0723
 -22.500  -0.3819   0.22016   0.21770  -0.0553  0.2220  0.0013  -4.7383   0.0000   0.0561
 -22.000  -0.3636   0.21634   0.21387  -0.0589  0.2216  0.0013  -4.5458   0.0000   0.0383
 -21.500  -0.3461   0.21113   0.20864  -0.0625  0.2212  0.0013  -4.3655   0.0000   0.0191
 -21.000  -0.3289   0.20581   0.20327  -0.0660  0.1906  0.0013  -4.1922   0.0000  -0.0016
 -20.500  -0.3116   0.20040   0.19783  -0.0694  0.1701  0.0013  -4.0245   0.0000  -0.0247
 -20.000  -0.2942   0.19491   0.19232  -0.0728  0.1697  0.0013  -3.8638   0.0000  -0.0507
 -19.500  -0.2768   0.18934   0.18674  -0.0761  0.1702  0.0013  -3.7118   0.0000  -0.0797
 -19.000  -0.2597   0.18370   0.18108  -0.0794  0.1698  0.0013  -3.5694   0.0000  -0.1123
 -18.500  -0.2427   0.17794   0.17531  -0.0826  0.1696  0.0013  -3.4420   0.0000  -0.1489
 -18.000  -0.2262   0.17203   0.16939  -0.0857  0.1693  0.0014  -3.3371   0.0000  -0.1901
 -17.000  -1.0421   0.01267   0.00872  -0.1908  0.3377  0.0019  -20.9855   0.0000   0.0425
 -16.500  -0.9878   0.01199   0.00796  -0.1919  0.3060  0.0020  -19.8514   0.0000   0.0318
 -16.000  -0.9320   0.01135   0.00728  -0.1931  0.2989  0.0021  -18.7263   0.0000   0.0193
 -15.500  -0.8752   0.01076   0.00666  -0.1942  0.2944  0.0023  -17.6190   0.0000   0.0049
 -15.000  -0.8178   0.01023   0.00609  -0.1952  0.2800  0.0024  -16.5343   0.0000  -0.0118
 -14.500  -0.7610   0.00980   0.00557  -0.1960  0.2336  0.0025  -15.4858   0.0000  -0.0307
 -14.000  -0.7025   0.00935   0.00509  -0.1971  0.2239  0.0027  -14.4508   0.0000  -0.0536
 -13.500  -0.6438   0.00895   0.00466  -0.1980  0.2209  0.0028  -13.5264   0.0000  -0.0810
 -12.500  -0.5262   0.00828   0.00388  -0.1998  0.1699  0.0032  -11.7614   0.0000  -0.1544
 -11.500  -0.4068   0.00766   0.00321  -0.2018  0.1691  0.0038  -10.0810   0.0000  -0.2734
 -10.500  -0.2877   0.00725   0.00274  -0.2034  0.1452  0.0040  -8.5155   0.0000  -0.4903
 -10.000  -0.2281   0.00709   0.00253  -0.2041  0.1398  0.0040  -7.7760   0.0000  -0.6843
  -9.500  -0.1683   0.00693   0.00236  -0.2049  0.1344  0.0041  -7.0653   0.0000  -1.0168
  -9.000  -0.1085   0.00680   0.00220  -0.2057  0.1246  0.0041  -6.3841   0.0000  -1.7169
  -8.500  -0.0486   0.00667   0.00205  -0.2064  0.1238  0.0041  -5.7303   0.0000  -4.1425
  -8.000   0.0112   0.00656   0.00193  -0.2072  0.1236  0.0042  -5.1060   0.0000  19.3075
  -7.500   0.0710   0.00647   0.00182  -0.2079  0.1233  0.0042  -4.5114   0.0000   3.2633
  -6.500   0.1905   0.00632   0.00164  -0.2093  0.1227  0.0043  -3.6535   0.0000   1.3760
  -6.000   0.2496   0.00632   0.00159  -0.2098  0.1026  0.0043  -3.2792   0.0000   1.1101
  -5.500   0.3089   0.00629   0.00154  -0.2104  0.0996  0.0044  -2.9186   0.0000   0.9454
  -5.000   0.3682   0.00628   0.00150  -0.2110  0.0969  0.0044  -2.5732   0.0000   0.8338
  -4.500   0.4275   0.00627   0.00148  -0.2116  0.0932  0.0045  -2.2431   0.0000   0.7532
  -4.000   0.4866   0.00627   0.00147  -0.2122  0.0847  0.0045  -1.9289   0.0000   0.6923
  -3.500   0.5457   0.00628   0.00147  -0.2127  0.0843  0.0046  -1.6303   0.0000   0.6446
  -3.000   0.6046   0.00630   0.00148  -0.2132  0.0842  0.0046  -1.3475   0.0000   0.6061
  -2.500   0.6634   0.00633   0.00149  -0.2137  0.0839  0.0046  -1.0799   0.0000   0.5745
  -1.500   0.7787   0.00658   0.00163  -0.2143  0.0489  0.0061  -1.0113   0.0000   0.5257
  -1.000   0.8366   0.00667   0.00170  -0.2146  0.0461  0.0071  -1.0635   0.0000   0.5062
  -0.500   0.8944   0.00676   0.00178  -0.2150  0.0436  0.0079  -1.1160   0.0000   0.4892
   0.000   0.9521   0.00686   0.00187  -0.2153  0.0413  0.0085  -1.1688   0.0000   0.4743
   0.500   1.0097   0.00695   0.00196  -0.2156  0.0390  0.0154  -1.2237   0.0000   0.4610
   1.000   1.0670   0.00706   0.00206  -0.2159  0.0420  0.0170  -1.2886   0.0000   0.4490
   1.500   1.1240   0.00719   0.00217  -0.2161  0.0410  0.0171  -1.3642   0.0000   0.4383
   2.500   1.2335   0.00780   0.00267  -0.2157  0.0018  0.0372  -1.5286   0.0000   0.4194
   3.500   1.3443   0.00821   0.00305  -0.2156  0.0013  0.0400  -1.7616   0.0000   0.4035
   4.000   1.3992   0.00844   0.00326  -0.2155  0.0013  0.0431  -1.9066   0.0000   0.3964
   4.500   1.4536   0.00869   0.00349  -0.2153  0.0013  0.0492  -2.0851   0.0000   0.3898
   6.000   1.6146   0.00950   0.00430  -0.2145  0.0012  0.1121  -2.6460   0.0000   0.3721
   6.500   1.6672   0.00981   0.00461  -0.2141  0.0012  0.1244  -2.8407   0.0000   0.3668
   7.000   1.7192   0.01014   0.00493  -0.2135  0.0012  0.1463  -3.0389   0.0000   0.3618
   7.500   1.7701   0.01050   0.00528  -0.2128  0.0012  0.1546  -3.2399   0.0000   0.3569
   8.000   1.8202   0.01088   0.00565  -0.2120  0.0012  0.1512  -3.4438   0.0000   0.3522
   8.500   1.8701   0.01126   0.00605  -0.2111  0.0012  0.1946  -3.6513   0.0000   0.3478
   9.500   1.9661   0.01213   0.00695  -0.2088  0.0012  0.2552  -4.2882   0.0000   0.3392
  10.000   2.0134   0.01258   0.00748  -0.2076  0.0011  0.3425  -4.8717   0.0000   0.3351
  10.500   2.0576   0.01311   0.00802  -0.2058  0.0011  0.3700  -5.4682   0.0000   0.3310
  11.000   2.0942   0.01370   0.00861  -0.2025  0.0011  0.3746  -6.0505   0.0000   0.3267
  11.500   2.1219   0.01437   0.00929  -0.1974  0.0011  0.3842  -6.5989   0.0000   0.3220
  12.000   2.1513   0.01516   0.01009  -0.1928  0.0010  0.3860  -7.1802   0.0000   0.3176
  12.500   2.1812   0.01606   0.01101  -0.1887  0.0010  0.4004  -7.7864   0.0000   0.3135
  13.500   2.2354   0.01836   0.01343  -0.1803  0.0009  0.4974  -9.0210   0.0000   0.3054
  14.000   2.2587   0.01983   0.01493  -0.1758  0.0008  0.4989  -9.6410   0.0000   0.3015
  14.500   2.2812   0.02148   0.01663  -0.1717  0.0008  0.5338  -10.2707   0.0000   0.2978
  15.000   2.2596   0.02638   0.02172  -0.1625  0.0010  0.5623  -10.5163   0.0000   0.2933
  15.500   2.2706   0.02943   0.02489  -0.1583  0.0017  0.5872  -11.0567   0.0000   0.2899
  16.000   2.2869   0.03236   0.02788  -0.1552  0.0022  0.6274  -11.7088   0.0000   0.2868
  16.500   2.2953   0.03608   0.03167  -0.1517  0.0025  0.6490  -12.2713   0.0000   0.2837
  17.000   2.3023   0.04003   0.03571  -0.1486  0.0029  0.6800  -12.8307   0.0000   0.2809
  17.500   2.3036   0.04490   0.04066  -0.1456  0.0034  0.6982  -13.3466   0.0000   0.2782
  18.000   2.3112   0.04952   0.04538  -0.1435  0.0038  0.7403  -13.9291   0.0000   0.2757
  18.500   2.3102   0.05540   0.05137  -0.1417  0.0041  0.7777  -14.4421   0.0000   0.2735
  19.500   2.3092   0.06926   0.06562  -0.1414  0.0044  1.0000  -15.4989   0.0000   0.2703


