xflr5 v6.59

 Calculated polar for: WORTMANN FX 63-137 AIRFOIL

 1 1 Reynolds number fixed          Mach number fixed         

 xtrf =   1.000 (top)        1.000 (bottom)
 Mach =   0.000     Re =     2.700 e 6     Ncrit =   9.000

  alpha     CL        CD       CDp       Cm    Top Xtr Bot Xtr   Cpmin    Chinge    XCp    
 ------- -------- --------- --------- -------- ------- ------- -------- --------- ---------
 -13.500   -0.1157   0.11863   0.11622   -0.1041   0.7386   0.0055   -2.7479   0.0000   -0.7402   
 -13.400   -0.1127   0.11758   0.11514   -0.1046   0.7330   0.0058   -2.7197   0.0000   -0.7701   
 -13.300   -0.1095   0.11659   0.11412   -0.1050   0.7265   0.0060   -2.6867   0.0000   -0.8035   
 -13.200   -0.1062   0.11558   0.11309   -0.1055   0.7208   0.0062   -2.6540   0.0000   -0.8400   
 -13.100   -0.1029   0.11453   0.11203   -0.1061   0.7190   0.0063   -2.6235   0.0000   -0.8796   
 -13.000   -0.0998   0.11344   0.11094   -0.1066   0.7163   0.0065   -2.5975   0.0000   -0.9194   
 -12.900   -0.0970   0.11229   0.10978   -0.1071   0.7119   0.0068   -2.5801   0.0000   -0.9569   
 -12.800   -0.0948   0.11108   0.10855   -0.1077   0.7038   0.0071   -2.5725   0.0000   -0.9895   
 -12.700   -0.0932   0.10978   0.10720   -0.1081   0.6934   0.0074   -2.5775   0.0000   -1.0159   
 -12.600   -0.0951   0.10722   0.10464   -0.1091   0.6924   0.0081   -2.6933   0.0000   -1.0006   
 -12.500   -0.1047   0.10238   0.09988   -0.1110   0.7082   0.0085   -3.0203   0.0000   -0.9053   
 -11.900   -0.0634   0.10075   0.09804   -0.1124   0.6604   0.0099   -2.4443   0.0000   -1.6678   
 -11.800   -0.0622   0.09907   0.09637   -0.1131   0.6597   0.0099   -2.4760   0.0000   -1.7177   
 -9.700   -0.2219   0.01025   0.00523   -0.1943   0.6821   0.0065   -6.5132   0.0000   -0.6638   
 -9.600   -0.2099   0.01013   0.00508   -0.1945   0.6793   0.0065   -6.3756   0.0000   -0.7165   
 -9.500   -0.1980   0.01001   0.00493   -0.1948   0.6766   0.0064   -6.2533   0.0000   -0.7756   
 -9.400   -0.1860   0.00990   0.00478   -0.1950   0.6737   0.0064   -6.1377   0.0000   -0.8421   
 -9.300   -0.1743   0.00980   0.00463   -0.1953   0.6683   0.0064   -6.0247   0.0000   -0.9160   
 -9.200   -0.1626   0.00971   0.00450   -0.1955   0.6604   0.0063   -5.9111   0.0000   -1.0010   
 -9.100   -0.1504   0.00958   0.00436   -0.1958   0.6579   0.0063   -5.7961   0.0000   -1.1036   
 -9.000   -0.1383   0.00947   0.00422   -0.1961   0.6526   0.0063   -5.6825   0.0000   -1.2226   
 -8.900   -0.1276   0.00943   0.00411   -0.1961   0.6339   0.0063   -5.5758   0.0000   -1.3462   
 -8.800   -0.1162   0.00938   0.00400   -0.1962   0.6210   0.0063   -5.4669   0.0000   -1.5020   
 -8.700   -0.1049   0.00934   0.00390   -0.1963   0.6112   0.0062   -5.3585   0.0000   -1.6919   
 -8.600   -0.0934   0.00929   0.00380   -0.1965   0.6010   0.0062   -5.2505   0.0000   -1.9305   
 -8.500   -0.0814   0.00922   0.00370   -0.1967   0.5967   0.0062   -5.1406   0.0000   -2.2548   
 -8.400   -0.0692   0.00914   0.00360   -0.1969   0.5953   0.0062   -5.0309   0.0000   -2.6976   
 -8.300   -0.0570   0.00906   0.00351   -0.1972   0.5935   0.0062   -4.9222   0.0000   -3.3275   
 -8.200   -0.0450   0.00899   0.00342   -0.1974   0.5907   0.0061   -4.8146   0.0000   -4.2910   
 -8.100   -0.0329   0.00893   0.00333   -0.1976   0.5874   0.0061   -4.7082   0.0000   -5.9513   
 -7.900   -0.0106   0.00893   0.00320   -0.1977   0.5605   0.0061   -4.5055   0.0000   -19.0612   
 -7.800   0.0012   0.00889   0.00313   -0.1978   0.5548   0.0061   -4.4028   0.0000   172.1767   
 -7.700   0.0129   0.00886   0.00307   -0.1980   0.5491   0.0060   -4.3012   0.0000   16.1097   
 -7.600   0.0245   0.00883   0.00301   -0.1981   0.5433   0.0060   -4.2061   0.0000   8.5748   
 -7.500   0.0363   0.00880   0.00294   -0.1983   0.5366   0.0060   -4.1308   0.0000   5.8782   
 -7.400   0.0483   0.00876   0.00288   -0.1984   0.5323   0.0060   -4.0552   0.0000   4.4821   
 -7.300   0.0604   0.00871   0.00282   -0.1986   0.5308   0.0060   -3.9797   0.0000   3.6364   
 -7.200   0.0725   0.00866   0.00276   -0.1988   0.5289   0.0060   -3.9046   0.0000   3.0742   
 -7.100   0.0844   0.00862   0.00271   -0.1990   0.5257   0.0060   -3.8302   0.0000   2.6746   
 -6.900   0.1079   0.00858   0.00260   -0.1993   0.5144   0.0060   -3.6829   0.0000   2.1476   
 -6.800   0.1188   0.00863   0.00258   -0.1992   0.4978   0.0060   -3.6130   0.0000   1.9733   
 -6.700   0.1304   0.00862   0.00254   -0.1993   0.4919   0.0060   -3.5407   0.0000   1.8192   
 -6.600   0.1420   0.00861   0.00251   -0.1994   0.4861   0.0060   -3.4690   0.0000   1.6910   
 -6.500   0.1536   0.00862   0.00247   -0.1995   0.4800   0.0060   -3.3979   0.0000   1.5827   
 -6.400   0.1652   0.00861   0.00244   -0.1996   0.4733   0.0060   -3.3269   0.0000   1.4891   
 -6.300   0.1770   0.00859   0.00241   -0.1998   0.4676   0.0060   -3.2557   0.0000   1.4066   
 -6.200   0.1890   0.00856   0.00237   -0.1999   0.4659   0.0060   -3.1842   0.0000   1.3336   
 -6.100   0.2010   0.00853   0.00234   -0.2001   0.4641   0.0060   -3.1130   0.0000   1.2694   
 -6.000   0.2129   0.00851   0.00231   -0.2003   0.4612   0.0059   -3.0421   0.0000   1.2127   
 -5.800   0.2351   0.00859   0.00230   -0.2003   0.4369   0.0059   -2.9024   0.0000   1.1211   
 -5.700   0.2466   0.00861   0.00229   -0.2003   0.4298   0.0059   -2.8283   0.0000   1.0805   
 -5.600   0.2580   0.00863   0.00229   -0.2004   0.4245   0.0059   -2.7481   0.0000   1.0436   
 -5.500   0.2684   0.00873   0.00242   -0.2002   0.4193   0.0059   -2.6122   0.0000   1.0118   
 -5.400   0.2797   0.00876   0.00245   -0.2003   0.4139   0.0059   -2.5331   0.0000   0.9810   
 -5.300   0.2913   0.00877   0.00243   -0.2003   0.4077   0.0059   -2.4671   0.0000   0.9519   
 -5.200   0.3031   0.00875   0.00242   -0.2005   0.4027   0.0058   -2.4028   0.0000   0.9248   
 -5.100   0.3150   0.00873   0.00239   -0.2006   0.4014   0.0058   -2.3399   0.0000   0.8994   
 -5.000   0.3270   0.00871   0.00236   -0.2008   0.4000   0.0058   -2.2788   0.0000   0.8758   
 -4.900   0.3389   0.00869   0.00234   -0.2010   0.3983   0.0058   -2.2193   0.0000   0.8540   
 -4.800   0.3509   0.00867   0.00231   -0.2011   0.3960   0.0058   -2.1613   0.0000   0.8337   
 -4.700   0.3627   0.00865   0.00229   -0.2013   0.3930   0.0058   -2.1048   0.0000   0.8147   
 -4.600   0.3730   0.00877   0.00231   -0.2011   0.3700   0.0058   -2.0537   0.0000   0.7986   
 -4.500   0.3847   0.00877   0.00229   -0.2012   0.3654   0.0058   -2.0001   0.0000   0.7820   
 -4.400   0.3963   0.00878   0.00226   -0.2013   0.3607   0.0058   -1.9489   0.0000   0.7664   
 -4.300   0.4079   0.00878   0.00224   -0.2014   0.3562   0.0058   -1.8979   0.0000   0.7517   
 -4.200   0.4196   0.00879   0.00222   -0.2015   0.3516   0.0058   -1.8481   0.0000   0.7378   
 -4.100   0.4313   0.00879   0.00219   -0.2016   0.3468   0.0059   -1.7996   0.0000   0.7246   
 -4.000   0.4431   0.00879   0.00217   -0.2018   0.3418   0.0059   -1.7523   0.0000   0.7120   
 -3.900   0.4551   0.00877   0.00215   -0.2019   0.3390   0.0060   -1.7062   0.0000   0.7000   
 -3.800   0.4669   0.00876   0.00214   -0.2020   0.3381   0.0063   -1.6585   0.0000   0.6887   
 -3.700   0.4732   0.00915   0.00261   -0.2009   0.3373   0.0087   -1.4623   0.0000   0.6803   
 -3.600   0.4927   0.00860   0.00199   -0.2028   0.3359   0.0150   -1.6807   0.0000   0.6668   
 -3.500   0.5041   0.00862   0.00202   -0.2028   0.3341   0.0154   -1.5988   0.0000   0.6573   
 -3.400   0.5155   0.00865   0.00205   -0.2028   0.3329   0.0158   -1.5161   0.0000   0.6482   
 -3.300   0.5259   0.00875   0.00212   -0.2027   0.3191   0.0161   -1.4395   0.0000   0.6399   
 -3.200   0.5364   0.00885   0.00219   -0.2026   0.3066   0.0164   -1.3666   0.0000   0.6319   
 -3.100   0.5476   0.00889   0.00223   -0.2026   0.3024   0.0166   -1.2950   0.0000   0.6240   
 -3.000   0.5587   0.00893   0.00228   -0.2027   0.2983   0.0168   -1.2257   0.0000   0.6164   
 -2.300   0.6409   0.00897   0.00213   -0.2035   0.2740   0.0167   -0.9120   0.0000   0.5695   
 -2.200   0.6502   0.00917   0.00222   -0.2032   0.2470   0.0168   -0.9078   0.0000   0.5643   
 -2.100   0.6608   0.00926   0.00227   -0.2031   0.2374   0.0169   -0.9178   0.0000   0.5590   
 -2.000   0.6717   0.00933   0.00230   -0.2031   0.2281   0.0171   -0.9274   0.0000   0.5537   
 -1.200   0.7629   0.00958   0.00239   -0.2035   0.1930   0.0188   -1.0018   0.0000   0.5167   
 -1.100   0.7743   0.00961   0.00240   -0.2035   0.1905   0.0187   -1.0125   0.0000   0.5127   
 -1.000   0.7857   0.00965   0.00241   -0.2036   0.1881   0.0188   -1.0233   0.0000   0.5088   
 -0.900   0.7971   0.00968   0.00242   -0.2036   0.1857   0.0190   -1.0341   0.0000   0.5050   
 -0.800   0.8084   0.00972   0.00243   -0.2037   0.1833   0.0192   -1.0448   0.0000   0.5013   
 -0.700   0.8199   0.00975   0.00244   -0.2037   0.1807   0.0193   -1.0555   0.0000   0.4977   
 -0.600   0.8313   0.00977   0.00245   -0.2038   0.1780   0.0195   -1.0661   0.0000   0.4942   
 -0.500   0.8427   0.00980   0.00247   -0.2038   0.1748   0.0196   -1.0767   0.0000   0.4908   
 -0.400   0.8540   0.00983   0.00249   -0.2038   0.1706   0.0196   -1.0873   0.0000   0.4874   
 -0.300   0.8655   0.00985   0.00251   -0.2039   0.1695   0.0195   -1.0977   0.0000   0.4842   
 -0.200   0.8769   0.00988   0.00253   -0.2039   0.1684   0.0193   -1.1082   0.0000   0.4810   
 -0.100   0.8882   0.00991   0.00255   -0.2040   0.1673   0.0192   -1.1187   0.0000   0.4779   
 0.000   0.8996   0.00993   0.00257   -0.2040   0.1662   0.0190   -1.1291   0.0000   0.4749   
 0.100   0.9110   0.00996   0.00260   -0.2041   0.1650   0.0189   -1.1395   0.0000   0.4720   
 0.200   0.9210   0.01010   0.00269   -0.2039   0.1509   0.0188   -1.1499   0.0000   0.4692   
 0.300   0.9316   0.01019   0.00275   -0.2038   0.1449   0.0187   -1.1602   0.0000   0.4664   
 0.400   0.9427   0.01024   0.00278   -0.2038   0.1428   0.0186   -1.1706   0.0000   0.4637   
 0.500   0.9537   0.01029   0.00282   -0.2037   0.1407   0.0186   -1.1809   0.0000   0.4610   
 0.600   0.9647   0.01035   0.00287   -0.2037   0.1387   0.0185   -1.1912   0.0000   0.4584   
 0.700   0.9757   0.01040   0.00291   -0.2037   0.1365   0.0185   -1.2014   0.0000   0.4559   
 0.800   0.9867   0.01045   0.00295   -0.2037   0.1344   0.0185   -1.2125   0.0000   0.4534   
 0.900   0.9978   0.01049   0.00299   -0.2036   0.1323   0.0190   -1.2249   0.0000   0.4509   
 1.000   1.0089   0.01054   0.00303   -0.2036   0.1302   0.0196   -1.2374   0.0000   0.4485   
 1.100   1.0196   0.01060   0.00305   -0.2035   0.1279   0.0249   -1.2496   0.0000   0.4462   
 1.200   1.0314   0.01061   0.00314   -0.2037   0.1257   0.0336   -1.2624   0.0000   0.4439   
 1.300   1.0425   0.01064   0.00317   -0.2037   0.1241   0.0356   -1.2749   0.0000   0.4417   
 1.400   1.0537   0.01067   0.00321   -0.2037   0.1238   0.0366   -1.2872   0.0000   0.4395   
 1.500   1.0649   0.01071   0.00325   -0.2037   0.1234   0.0373   -1.2996   0.0000   0.4373   
 1.600   1.0760   0.01074   0.00329   -0.2037   0.1230   0.0378   -1.3120   0.0000   0.4352   
 1.700   1.0871   0.01078   0.00332   -0.2037   0.1225   0.0382   -1.3252   0.0000   0.4331   
 1.800   1.0982   0.01082   0.00336   -0.2037   0.1219   0.0385   -1.3403   0.0000   0.4311   
 1.900   1.1092   0.01086   0.00340   -0.2037   0.1212   0.0400   -1.3555   0.0000   0.4291   
 2.000   1.1202   0.01091   0.00345   -0.2037   0.1201   0.0418   -1.3708   0.0000   0.4271   
 2.100   1.1312   0.01095   0.00349   -0.2037   0.1187   0.0443   -1.3863   0.0000   0.4252   
 2.200   1.1401   0.01116   0.00364   -0.2033   0.1032   0.0471   -1.4058   0.0000   0.4233   
 2.300   1.1513   0.01121   0.00372   -0.2033   0.1020   0.0648   -1.4210   0.0000   0.4215   
 2.400   1.1620   0.01128   0.00378   -0.2033   0.1006   0.0668   -1.4364   0.0000   0.4197   
 2.500   1.1727   0.01134   0.00383   -0.2032   0.0992   0.0766   -1.4520   0.0000   0.4179   
 2.600   1.1838   0.01140   0.00391   -0.2033   0.0964   0.1011   -1.4677   0.0000   0.4162   
 2.700   1.1942   0.01150   0.00399   -0.2031   0.0909   0.1136   -1.4837   0.0000   0.4144   
 2.800   1.2050   0.01156   0.00406   -0.2031   0.0855   0.1217   -1.5015   0.0000   0.4127   
 2.900   1.2164   0.01159   0.00413   -0.2032   0.0840   0.1434   -1.5259   0.0000   0.4111   
 3.000   1.2271   0.01165   0.00419   -0.2032   0.0832   0.1467   -1.5500   0.0000   0.4095   
 3.100   1.2380   0.01170   0.00425   -0.2032   0.0819   0.1591   -1.5741   0.0000   0.4078   
 3.200   1.2491   0.01175   0.00433   -0.2032   0.0797   0.1752   -1.5988   0.0000   0.4063   
 3.300   1.2582   0.01196   0.00451   -0.2029   0.0662   0.1938   -1.6248   0.0000   0.4047   
 3.400   1.2685   0.01205   0.00458   -0.2028   0.0640   0.2047   -1.6443   0.0000   0.4032   
 3.500   1.2793   0.01212   0.00467   -0.2028   0.0620   0.2212   -1.6638   0.0000   0.4017   
 3.600   1.2905   0.01217   0.00475   -0.2029   0.0600   0.2478   -1.6840   0.0000   0.4002   
 3.700   1.3012   0.01224   0.00483   -0.2028   0.0579   0.2621   -1.7047   0.0000   0.3988   
 3.800   1.3123   0.01229   0.00491   -0.2029   0.0558   0.2819   -1.7266   0.0000   0.3974   
 3.900   1.3228   0.01234   0.00497   -0.2028   0.0587   0.2762   -1.7526   0.0000   0.3959   
 4.000   1.3343   0.01237   0.00505   -0.2030   0.0578   0.3065   -1.7873   0.0000   0.3945   
 4.100   1.3452   0.01242   0.00513   -0.2030   0.0561   0.3247   -1.8212   0.0000   0.3932   
 4.300   1.3673   0.01252   0.00531   -0.2031   0.0531   0.3706   -1.8902   0.0000   0.3905   
 4.400   1.3783   0.01257   0.00539   -0.2032   0.0519   0.3894   -1.9248   0.0000   0.3892   
 4.500   1.3890   0.01263   0.00547   -0.2031   0.0516   0.4030   -1.9596   0.0000   0.3879   
 4.600   1.4000   0.01268   0.00557   -0.2032   0.0514   0.4258   -1.9953   0.0000   0.3867   
 4.700   1.4103   0.01275   0.00565   -0.2031   0.0510   0.4338   -2.0302   0.0000   0.3854   
 4.800   1.4207   0.01283   0.00575   -0.2030   0.0503   0.4461   -2.0655   0.0000   0.3841   
 4.900   1.4310   0.01291   0.00585   -0.2029   0.0492   0.4586   -2.1010   0.0000   0.3828   
 5.000   1.4409   0.01301   0.00597   -0.2027   0.0476   0.4690   -2.1362   0.0000   0.3816   
 5.100   1.4512   0.01311   0.00610   -0.2026   0.0455   0.4935   -2.1722   0.0000   0.3804   
 5.200   1.4608   0.01324   0.00623   -0.2024   0.0436   0.5040   -2.2069   0.0000   0.3791   
 5.300   1.4709   0.01333   0.00635   -0.2022   0.0420   0.5214   -2.2424   0.0000   0.3779   
 5.400   1.4806   0.01344   0.00646   -0.2020   0.0404   0.5281   -2.2773   0.0000   0.3767   
 5.500   1.4902   0.01354   0.00656   -0.2017   0.0389   0.5301   -2.3122   0.0000   0.3755   
 5.600   1.4999   0.01364   0.00665   -0.2015   0.0382   0.5317   -2.3475   0.0000   0.3743   
 5.700   1.5096   0.01373   0.00675   -0.2013   0.0379   0.5334   -2.3835   0.0000   0.3731   
 5.800   1.5193   0.01383   0.00684   -0.2010   0.0377   0.5381   -2.4197   0.0000   0.3720   
 5.900   1.5289   0.01392   0.00695   -0.2008   0.0374   0.5435   -2.4561   0.0000   0.3708   
 6.000   1.5379   0.01407   0.00710   -0.2004   0.0350   0.5503   -2.4948   0.0000   0.3697   
 6.100   1.5436   0.01443   0.00739   -0.1995   0.0251   0.5541   -2.5316   0.0000   0.3684   
 6.200   1.5510   0.01466   0.00759   -0.1989   0.0209   0.5587   -2.5517   0.0000   0.3672   
 6.300   1.5596   0.01481   0.00773   -0.1984   0.0173   0.5630   -2.5793   0.0000   0.3661   
 6.400   1.5685   0.01494   0.00786   -0.1980   0.0165   0.5678   -2.6134   0.0000   0.3650   
 6.500   1.5778   0.01504   0.00799   -0.1978   0.0163   0.5793   -2.6492   0.0000   0.3639   
 6.600   1.5805   0.01557   0.00849   -0.1962   0.0045   0.5857   -2.6810   0.0000   0.3625   
 6.700   1.5888   0.01571   0.00864   -0.1957   0.0044   0.5922   -2.7161   0.0000   0.3614   
 6.800   1.5963   0.01585   0.00879   -0.1951   0.0042   0.5962   -2.7500   0.0000   0.3603   
 6.900   1.6033   0.01599   0.00893   -0.1943   0.0040   0.6025   -2.7832   0.0000   0.3591   
 7.000   1.6107   0.01613   0.00909   -0.1937   0.0038   0.6119   -2.8172   0.0000   0.3580   
 7.100   1.6181   0.01627   0.00924   -0.1930   0.0037   0.6196   -2.8508   0.0000   0.3568   
 7.200   1.6253   0.01641   0.00940   -0.1924   0.0035   0.6254   -2.8838   0.0000   0.3557   
 7.300   1.6325   0.01656   0.00954   -0.1916   0.0033   0.6289   -2.9167   0.0000   0.3546   
 7.400   1.6399   0.01670   0.00970   -0.1910   0.0032   0.6366   -2.9501   0.0000   0.3535   
 7.500   1.6475   0.01684   0.00986   -0.1904   0.0029   0.6447   -2.9838   0.0000   0.3525   
 7.600   1.6548   0.01699   0.01003   -0.1898   0.0027   0.6511   -3.0172   0.0000   0.3514   
 7.700   1.6620   0.01715   0.01019   -0.1891   0.0025   0.6563   -3.0504   0.0000   0.3503   
 7.800   1.6691   0.01731   0.01036   -0.1884   0.0022   0.6601   -3.0835   0.0000   0.3493   
 8.900   1.7431   0.01943   0.01263   -0.1807   0.0013   0.7159   -3.4536   0.0000   0.3381   
 9.000   1.7490   0.01967   0.01289   -0.1800   0.0013   0.7202   -3.4864   0.0000   0.3371   
 9.100   1.7550   0.01992   0.01316   -0.1792   0.0013   0.7278   -3.5193   0.0000   0.3361   
 9.200   1.7611   0.02017   0.01343   -0.1785   0.0013   0.7361   -3.5526   0.0000   0.3352   
 9.300   1.7671   0.02042   0.01371   -0.1777   0.0013   0.7436   -3.5860   0.0000   0.3342   
 9.400   1.7729   0.02069   0.01400   -0.1770   0.0013   0.7495   -3.6188   0.0000   0.3333   
 9.500   1.7787   0.02097   0.01431   -0.1762   0.0013   0.7590   -3.6557   0.0000   0.3324   
 9.600   1.7846   0.02125   0.01461   -0.1755   0.0013   0.7683   -3.6984   0.0000   0.3315   
 9.700   1.7905   0.02154   0.01492   -0.1748   0.0013   0.7765   -3.7411   0.0000   0.3305   
 9.800   1.7964   0.02183   0.01525   -0.1741   0.0013   0.7881   -3.7840   0.0000   0.3296   
 9.900   1.8020   0.02215   0.01560   -0.1734   0.0013   0.7994   -3.8259   0.0000   0.3287   
 10.000   1.8076   0.02246   0.01595   -0.1727   0.0013   0.8105   -3.8679   0.0000   0.3279   
 10.100   1.8134   0.02278   0.01631   -0.1720   0.0013   0.8238   -3.9103   0.0000   0.3270   
 10.200   1.8191   0.02312   0.01668   -0.1713   0.0013   0.8383   -3.9524   0.0000   0.3261   
 10.300   1.8245   0.02347   0.01709   -0.1707   0.0013   0.8574   -3.9937   0.0000   0.3253   
 10.400   1.8302   0.02381   0.01751   -0.1701   0.0013   0.8931   -4.0354   0.0000   0.3245   
