XFLR5 v6.02 Beta

 Calculated polar for: WORTMANN FX 63-137

 1 1 Reynolds number fixed          Mach number fixed         

 xtrf =   1.000 (top)        1.000 (bottom)
 Mach =   0.000     Re =    20.250 e 6     Ncrit =   9.000

  alpha     CL        CD       CDp       CM    Top Xtr Bot Xtr   Cpmin    Chinge    XCp    
 ------- -------- --------- --------- -------- ------- ------- -------- --------- ---------
 -20.500  -1.1457   0.04644   0.04350  -0.1537  0.7179  0.0029  -24.8291   0.0000   0.0827
 -20.000  -1.1569   0.03866   0.03553  -0.1606  0.6855  0.0029  -24.7129   0.0000   0.0797
 -19.500  -1.1653   0.03191   0.02863  -0.1664  0.6616  0.0030  -24.5045   0.0000   0.0773
 -19.000  -1.1610   0.02677   0.02339  -0.1707  0.6570  0.0030  -24.0634   0.0000   0.0746
 -18.500  -1.1479   0.02308   0.01953  -0.1731  0.6117  0.0031  -23.4605   0.0000   0.0721
 -18.000  -1.1312   0.01981   0.01619  -0.1751  0.6008  0.0032  -22.7989   0.0000   0.0693
 -17.500  -1.0900   0.01713   0.01344  -0.1800  0.5965  0.0032  -21.8432   0.0000   0.0598
 -17.000  -1.0388   0.01510   0.01121  -0.1856  0.5346  0.0033  -20.7799   0.0000   0.0469
 -16.500  -0.9890   0.01416   0.01008  -0.1871  0.4716  0.0034  -19.7105   0.0000   0.0369
 -16.000  -0.9344   0.01328   0.00915  -0.1888  0.4656  0.0035  -18.6078   0.0000   0.0245
 -15.500  -0.8787   0.01251   0.00833  -0.1902  0.4650  0.0035  -17.5161   0.0000   0.0104
 -15.000  -0.8236   0.01192   0.00763  -0.1912  0.4326  0.0036  -16.4585   0.0000  -0.0051
 -14.500  -0.7671   0.01136   0.00699  -0.1923  0.4193  0.0036  -15.4142   0.0000  -0.0235
 -14.000  -0.7112   0.01092   0.00642  -0.1931  0.3662  0.0037  -14.4054   0.0000  -0.0443
 -13.500  -0.6549   0.01053   0.00590  -0.1938  0.3147  0.0037  -13.4237   0.0000  -0.0690
 -13.000  -0.5968   0.01012   0.00541  -0.1948  0.2978  0.0038  -12.5268   0.0000  -0.0997
 -12.500  -0.5381   0.00974   0.00497  -0.1958  0.2857  0.0038  -11.6509   0.0000  -0.1378
 -12.000  -0.4790   0.00937   0.00457  -0.1967  0.2776  0.0039  -10.7958   0.0000  -0.1858
 -11.500  -0.4196   0.00906   0.00422  -0.1977  0.2774  0.0039  -9.9433   0.0000  -0.2477
 -11.000  -0.3617   0.00887   0.00390  -0.1983  0.2351  0.0040  -9.1472   0.0000  -0.3270
 -10.000  -0.2432   0.00842   0.00333  -0.2000  0.1948  0.0041  -7.6189   0.0000  -0.6091
  -9.500  -0.1836   0.00821   0.00306  -0.2009  0.1859  0.0041  -6.9132   0.0000  -0.8889
  -9.000  -0.1236   0.00799   0.00280  -0.2018  0.1709  0.0042  -6.2791   0.0000  -1.4445
  -8.500  -0.0636   0.00781   0.00259  -0.2026  0.1696  0.0042  -5.6322   0.0000  -3.0483
  -8.000  -0.0035   0.00764   0.00240  -0.2035  0.1687  0.0042  -5.0244   0.0000  -59.0750
  -6.500   0.1753   0.00735   0.00199  -0.2057  0.1388  0.0043  -3.6376   0.0000   1.4530
  -6.000   0.2350   0.00728   0.00189  -0.2064  0.1336  0.0043  -3.2773   0.0000   1.1486
  -5.500   0.2946   0.00722   0.00182  -0.2071  0.1282  0.0044  -2.9183   0.0000   0.9678
  -5.000   0.3541   0.00718   0.00176  -0.2078  0.1241  0.0044  -2.5789   0.0000   0.8478
  -4.500   0.4136   0.00714   0.00172  -0.2084  0.1236  0.0045  -2.2576   0.0000   0.7624
  -4.000   0.4728   0.00713   0.00169  -0.2090  0.1232  0.0045  -1.9469   0.0000   0.6985
  -3.500   0.5310   0.00721   0.00173  -0.2094  0.1049  0.0046  -1.6530   0.0000   0.6492
  -3.000   0.5892   0.00728   0.00173  -0.2098  0.0963  0.0069  -1.3730   0.0000   0.6096
  -2.500   0.6478   0.00732   0.00176  -0.2103  0.0929  0.0079  -1.1052   0.0000   0.5770
  -2.000   0.7062   0.00737   0.00179  -0.2107  0.0872  0.0082  -0.9521   0.0000   0.5498
  -1.500   0.7645   0.00743   0.00185  -0.2112  0.0844  0.0099  -1.0019   0.0000   0.5267
  -1.000   0.8229   0.00748   0.00190  -0.2117  0.0838  0.0151  -1.0542   0.0000   0.5069
  -0.500   0.8806   0.00757   0.00197  -0.2120  0.0830  0.0155  -1.1066   0.0000   0.4896
   0.000   0.9381   0.00767   0.00207  -0.2123  0.0820  0.0157  -1.1592   0.0000   0.4744
   0.500   0.9936   0.00794   0.00225  -0.2122  0.0613  0.0161  -1.2113   0.0000   0.4610
   1.000   1.0528   0.00788   0.00227  -0.2129  0.0820  0.0172  -1.2763   0.0000   0.4489
   1.500   1.1080   0.00815   0.00247  -0.2128  0.0652  0.0178  -1.3501   0.0000   0.4380
   2.000   1.1635   0.00837   0.00264  -0.2127  0.0559  0.0230  -1.4251   0.0000   0.4281
   2.500   1.2143   0.00900   0.00313  -0.2117  0.0047  0.0378  -1.5085   0.0000   0.4189
   3.000   1.2692   0.00924   0.00335  -0.2116  0.0034  0.0395  -1.6186   0.0000   0.4106
   3.500   1.3237   0.00950   0.00360  -0.2114  0.0028  0.0492  -1.7349   0.0000   0.4029
   4.500   1.4315   0.01005   0.00414  -0.2109  0.0026  0.0672  -2.0458   0.0000   0.3890
   5.000   1.4845   0.01036   0.00444  -0.2105  0.0019  0.0803  -2.2254   0.0000   0.3827
   5.500   1.5372   0.01067   0.00476  -0.2100  0.0014  0.1068  -2.4092   0.0000   0.3767
   6.000   1.5906   0.01097   0.00514  -0.2098  0.0013  0.1940  -2.5986   0.0000   0.3712
   6.500   1.6415   0.01135   0.00551  -0.2091  0.0012  0.2115  -2.7890   0.0000   0.3658
   7.000   1.6924   0.01173   0.00592  -0.2084  0.0012  0.2497  -2.9837   0.0000   0.3607
   7.500   1.7428   0.01212   0.00637  -0.2077  0.0012  0.3085  -3.1818   0.0000   0.3559
   8.000   1.7893   0.01262   0.00682  -0.2061  0.0012  0.2728  -3.3772   0.0000   0.3510
   8.500   1.8391   0.01303   0.00737  -0.2054  0.0012  0.3945  -3.5825   0.0000   0.3466
   9.000   1.8846   0.01356   0.00792  -0.2038  0.0012  0.4274  -3.8247   0.0000   0.3422
   9.500   1.9272   0.01414   0.00852  -0.2017  0.0011  0.4440  -4.0914   0.0000   0.3377
  10.000   1.9601   0.01476   0.00923  -0.1976  0.0011  0.5074  -4.5560   0.0000   0.3329
  10.500   1.9913   0.01552   0.01000  -0.1933  0.0011  0.5207  -5.0610   0.0000   0.3283
  11.000   2.0224   0.01639   0.01090  -0.1892  0.0011  0.5340  -5.5869   0.0000   0.3238
  11.500   2.0523   0.01738   0.01195  -0.1852  0.0011  0.5649  -6.1278   0.0000   0.3194
  12.000   2.0807   0.01855   0.01317  -0.1812  0.0010  0.5948  -6.6842   0.0000   0.3152
  12.500   2.1081   0.01989   0.01457  -0.1773  0.0010  0.6293  -7.2583   0.0000   0.3112
  13.000   2.1333   0.02146   0.01622  -0.1734  0.0010  0.6747  -7.8322   0.0000   0.3073
  13.500   2.1540   0.02332   0.01815  -0.1692  0.0009  0.7014  -8.3935   0.0000   0.3034
  14.000   2.1751   0.02546   0.02037  -0.1655  0.0009  0.7446  -8.9738   0.0000   0.2998
  14.500   2.1955   0.02788   0.02289  -0.1622  0.0009  0.7973  -9.5654   0.0000   0.2964
  15.000   2.2183   0.03066   0.02586  -0.1599  0.0009  0.9264  -10.1923   0.0000   0.2934
  15.500   2.2334   0.03371   0.02904  -0.1567  0.0008  1.0000  -10.7751   0.0000   0.2903
  16.000   2.2449   0.03726   0.03265  -0.1536  0.0008  1.0000  -11.3428   0.0000   0.2873
  16.500   2.2532   0.04119   0.03663  -0.1506  0.0008  1.0000  -11.8955   0.0000   0.2844
  17.000   2.2589   0.04569   0.04120  -0.1479  0.0008  1.0000  -12.4375   0.0000   0.2817
  17.500   2.2703   0.04978   0.04535  -0.1458  0.0008  1.0000  -13.0407   0.0000   0.2791
  18.500   2.2702   0.06129   0.05701  -0.1422  0.0007  1.0000  -14.0704   0.0000   0.2747
  19.000   2.2659   0.06783   0.06364  -0.1410  0.0007  1.0000  -14.5539   0.0000   0.2728
  19.500   2.2582   0.07495   0.07086  -0.1403  0.0006  1.0000  -15.0091   0.0000   0.2712
  20.000   2.2590   0.08061   0.07658  -0.1395  0.0006  1.0000  -15.5557   0.0000   0.2693


