XFLR5 v6.02 Beta

 Calculated polar for: WORTMANN FX 63-137

 1 1 Reynolds number fixed          Mach number fixed         

 xtrf =   1.000 (top)        1.000 (bottom)
 Mach =   0.000     Re =    23.250 e 6     Ncrit =   9.000

  alpha     CL        CD       CDp       CM    Top Xtr Bot Xtr   Cpmin    Chinge    XCp    
 ------- -------- --------- --------- -------- ------- ------- -------- --------- ---------
 -21.000  -1.1209   0.05563   0.05270  -0.1471  0.6671  0.0026  -24.7203   0.0000   0.0836
 -20.500  -1.1584   0.04444   0.04136  -0.1563  0.6605  0.0026  -25.1024   0.0000   0.0821
 -19.500  -1.1820   0.03003   0.02663  -0.1684  0.6164  0.0027  -24.8093   0.0000   0.0780
 -19.000  -1.1734   0.02563   0.02214  -0.1716  0.5961  0.0028  -24.2826   0.0000   0.0755
 -18.000  -1.1381   0.01873   0.01506  -0.1769  0.5746  0.0030  -22.9442   0.0000   0.0688
 -17.500  -1.0930   0.01619   0.01242  -0.1823  0.5553  0.0031  -21.9395   0.0000   0.0582
 -17.000  -1.0420   0.01462   0.01063  -0.1865  0.4757  0.0032  -20.8605   0.0000   0.0467
 -16.000  -0.9356   0.01286   0.00868  -0.1895  0.4262  0.0034  -18.6593   0.0000   0.0240
 -15.500  -0.8800   0.01216   0.00792  -0.1908  0.4166  0.0035  -17.5674   0.0000   0.0101
 -15.000  -0.8233   0.01153   0.00725  -0.1920  0.4035  0.0036  -16.4914   0.0000  -0.0061
 -14.500  -0.7658   0.01096   0.00663  -0.1931  0.4009  0.0036  -15.4360   0.0000  -0.0251
 -14.000  -0.7102   0.01059   0.00610  -0.1938  0.3376  0.0037  -14.4296   0.0000  -0.0457
 -13.500  -0.6536   0.01023   0.00560  -0.1945  0.2912  0.0037  -13.4719   0.0000  -0.0707
 -13.000  -0.5949   0.00981   0.00515  -0.1955  0.2789  0.0038  -12.5728   0.0000  -0.1022
 -12.500  -0.5359   0.00942   0.00473  -0.1965  0.2775  0.0038  -11.6972   0.0000  -0.1409
 -12.000  -0.4779   0.00916   0.00435  -0.1973  0.2396  0.0039  -10.8571   0.0000  -0.1879
 -11.500  -0.4182   0.00883   0.00401  -0.1983  0.2450  0.0039  -10.0190   0.0000  -0.2508
 -11.000  -0.3591   0.00858   0.00369  -0.1991  0.2209  0.0040  -9.2247   0.0000  -0.3332
 -10.500  -0.3002   0.00838   0.00341  -0.1999  0.1934  0.0040  -8.4605   0.0000  -0.4478
 -10.000  -0.2407   0.00817   0.00314  -0.2007  0.1850  0.0041  -7.7226   0.0000  -0.6210
  -9.500  -0.1809   0.00796   0.00290  -0.2016  0.1765  0.0041  -7.0186   0.0000  -0.9104
  -9.000  -0.1209   0.00776   0.00267  -0.2025  0.1696  0.0041  -6.3559   0.0000  -1.4890
  -8.500  -0.0609   0.00759   0.00248  -0.2033  0.1686  0.0042  -5.7082   0.0000  -3.2072
  -8.000  -0.0015   0.00748   0.00232  -0.2040  0.1507  0.0042  -5.0952   0.0000  -140.9023
  -7.500   0.0582   0.00737   0.00217  -0.2048  0.1416  0.0042  -4.5105   0.0000   3.8755
  -7.000   0.1179   0.00728   0.00204  -0.2055  0.1376  0.0043  -4.0393   0.0000   2.0418
  -6.500   0.1776   0.00720   0.00193  -0.2062  0.1331  0.0043  -3.6551   0.0000   1.4407
  -6.000   0.2373   0.00712   0.00184  -0.2069  0.1279  0.0043  -3.2847   0.0000   1.1423
  -5.500   0.2969   0.00707   0.00177  -0.2076  0.1241  0.0044  -2.9256   0.0000   0.9640
  -5.000   0.3564   0.00703   0.00172  -0.2083  0.1236  0.0044  -2.5818   0.0000   0.8455
  -4.500   0.4158   0.00700   0.00168  -0.2089  0.1232  0.0045  -2.2567   0.0000   0.7609
  -4.000   0.4750   0.00699   0.00166  -0.2095  0.1227  0.0045  -1.9448   0.0000   0.6975
  -3.000   0.5914   0.00714   0.00170  -0.2103  0.0935  0.0064  -1.3700   0.0000   0.6091
  -2.500   0.6501   0.00718   0.00172  -0.2108  0.0902  0.0072  -1.1019   0.0000   0.5767
  -2.000   0.7085   0.00722   0.00175  -0.2113  0.0850  0.0077  -0.9536   0.0000   0.5496
  -1.500   0.7669   0.00727   0.00180  -0.2117  0.0842  0.0092  -1.0035   0.0000   0.5266
  -0.500   0.8830   0.00742   0.00193  -0.2125  0.0825  0.0154  -1.1083   0.0000   0.4896
   0.000   0.9393   0.00763   0.00208  -0.2126  0.0648  0.0156  -1.1598   0.0000   0.4744
   0.500   0.9959   0.00781   0.00221  -0.2127  0.0546  0.0160  -1.2131   0.0000   0.4610
   1.000   1.0532   0.00790   0.00231  -0.2130  0.0613  0.0171  -1.2766   0.0000   0.4489
   1.500   1.1098   0.00805   0.00244  -0.2132  0.0587  0.0174  -1.3517   0.0000   0.4381
   2.000   1.1661   0.00821   0.00259  -0.2133  0.0516  0.0223  -1.4274   0.0000   0.4282
   2.500   1.2172   0.00882   0.00306  -0.2123  0.0041  0.0377  -1.5115   0.0000   0.4190
   3.000   1.2721   0.00906   0.00328  -0.2122  0.0030  0.0386  -1.6223   0.0000   0.4107
   3.500   1.3267   0.00931   0.00351  -0.2120  0.0025  0.0477  -1.7388   0.0000   0.4030
   4.000   1.3810   0.00957   0.00377  -0.2118  0.0029  0.0517  -1.8753   0.0000   0.3958
   4.500   1.4349   0.00985   0.00404  -0.2116  0.0023  0.0668  -2.0518   0.0000   0.3891
   5.000   1.4880   0.01015   0.00433  -0.2112  0.0017  0.0768  -2.2317   0.0000   0.3828
   5.500   1.5409   0.01046   0.00465  -0.2108  0.0013  0.1033  -2.4162   0.0000   0.3769
   6.000   1.5937   0.01077   0.00501  -0.2104  0.0013  0.1653  -2.6050   0.0000   0.3713
   6.500   1.6454   0.01112   0.00538  -0.2098  0.0012  0.1956  -2.7968   0.0000   0.3660
   7.000   1.6961   0.01150   0.00577  -0.2091  0.0012  0.2216  -2.9914   0.0000   0.3609
   7.500   1.7460   0.01190   0.00619  -0.2082  0.0012  0.2611  -3.1890   0.0000   0.3560
   8.000   1.7939   0.01236   0.00664  -0.2070  0.0012  0.2496  -3.3871   0.0000   0.3512
   8.500   1.8440   0.01277   0.00717  -0.2063  0.0012  0.3696  -3.5932   0.0000   0.3468
   9.000   1.8894   0.01329   0.00769  -0.2047  0.0012  0.3871  -3.8386   0.0000   0.3423
   9.500   1.9339   0.01383   0.00828  -0.2029  0.0011  0.4290  -4.1108   0.0000   0.3380
  10.000   1.9708   0.01441   0.00895  -0.1997  0.0011  0.4987  -4.6180   0.0000   0.3334
  10.500   2.0016   0.01513   0.00968  -0.1952  0.0011  0.5005  -5.1236   0.0000   0.3287
  11.000   2.0321   0.01595   0.01053  -0.1909  0.0011  0.5193  -5.6501   0.0000   0.3241
  11.500   2.0629   0.01690   0.01152  -0.1870  0.0011  0.5482  -6.1989   0.0000   0.3198
  12.000   2.0903   0.01802   0.01268  -0.1826  0.0010  0.5650  -6.7547   0.0000   0.3155
  12.500   2.1176   0.01930   0.01402  -0.1786  0.0010  0.5951  -7.3282   0.0000   0.3114
  13.000   2.1437   0.02077   0.01555  -0.1748  0.0010  0.6352  -7.9114   0.0000   0.3075
  14.000   2.1880   0.02448   0.01941  -0.1669  0.0009  0.7081  -9.0764   0.0000   0.3000
  14.500   2.2079   0.02681   0.02182  -0.1633  0.0009  0.7493  -9.6680   0.0000   0.2966
  15.000   2.2259   0.02951   0.02462  -0.1600  0.0009  0.8031  -10.2600   0.0000   0.2933
  15.500   2.2500   0.03231   0.02768  -0.1582  0.0008  1.0000  -10.9186   0.0000   0.2904
  16.000   2.2622   0.03571   0.03113  -0.1549  0.0008  1.0000  -11.4961   0.0000   0.2873
  16.500   2.2743   0.03922   0.03469  -0.1520  0.0008  1.0000  -12.0870   0.0000   0.2844
  17.000   2.2806   0.04345   0.03899  -0.1491  0.0008  1.0000  -12.6394   0.0000   0.2816
  17.500   2.2852   0.04824   0.04384  -0.1466  0.0007  1.0000  -13.1863   0.0000   0.2790
  18.000   2.2869   0.05361   0.04929  -0.1445  0.0007  1.0000  -13.7182   0.0000   0.2767
  18.500   2.2854   0.05959   0.05534  -0.1428  0.0006  1.0000  -14.2275   0.0000   0.2745
  19.000   2.2913   0.06465   0.06046  -0.1414  0.0006  1.0000  -14.8170   0.0000   0.2723


