XFLR5 v6.02 Beta

 Calculated polar for: WORTMANN FX 63-137

 1 1 Reynolds number fixed          Mach number fixed         

 xtrf =   1.000 (top)        1.000 (bottom)
 Mach =   0.000     Re =    50.750 e 6     Ncrit =   9.000

  alpha     CL        CD       CDp       CM    Top Xtr Bot Xtr   Cpmin    Chinge    XCp    
 ------- -------- --------- --------- -------- ------- ------- -------- --------- ---------
 -21.500  -1.2421   0.04540   0.04212  -0.1584  0.4660  0.0015  -27.4331   0.0000   0.0878
 -21.000  -1.2635   0.03696   0.03359  -0.1652  0.4658  0.0016  -27.4510   0.0000   0.0864
 -20.000  -1.2650   0.02642   0.02287  -0.1729  0.4373  0.0016  -26.6658   0.0000   0.0835
 -19.500  -1.2503   0.02285   0.01924  -0.1752  0.4315  0.0017  -26.0031   0.0000   0.0814
 -19.000  -1.2384   0.01965   0.01597  -0.1763  0.4268  0.0017  -25.3654   0.0000   0.0805
 -18.500  -1.2004   0.01702   0.01329  -0.1806  0.4204  0.0018  -24.3996   0.0000   0.0733
 -18.000  -1.1468   0.01477   0.01096  -0.1872  0.4009  0.0019  -23.2581   0.0000   0.0613
 -17.500  -1.0965   0.01379   0.00985  -0.1888  0.3386  0.0019  -22.1305   0.0000   0.0530
 -17.000  -1.0427   0.01292   0.00894  -0.1903  0.3379  0.0020  -20.9798   0.0000   0.0431
 -16.500  -0.9876   0.01215   0.00814  -0.1916  0.3377  0.0021  -19.8385   0.0000   0.0321
 -16.000  -0.9324   0.01151   0.00743  -0.1927  0.3083  0.0023  -18.7225   0.0000   0.0198
 -15.500  -0.8758   0.01090   0.00678  -0.1938  0.3037  0.0024  -17.6183   0.0000   0.0055
 -15.000  -0.8186   0.01035   0.00619  -0.1949  0.2953  0.0025  -16.5369   0.0000  -0.0111
 -14.500  -0.7619   0.00991   0.00565  -0.1957  0.2409  0.0027  -15.4898   0.0000  -0.0299
 -14.000  -0.7036   0.00945   0.00516  -0.1967  0.2315  0.0029  -14.4562   0.0000  -0.0527
 -13.500  -0.6449   0.00905   0.00472  -0.1977  0.2215  0.0030  -13.5319   0.0000  -0.0800
 -13.000  -0.5857   0.00866   0.00430  -0.1987  0.2208  0.0032  -12.6326   0.0000  -0.1131
 -12.500  -0.5273   0.00837   0.00393  -0.1995  0.1756  0.0034  -11.7650   0.0000  -0.1530
 -12.000  -0.4678   0.00805   0.00358  -0.2005  0.1695  0.0036  -10.9126   0.0000  -0.2043
 -11.500  -0.4080   0.00777   0.00327  -0.2014  0.1695  0.0038  -10.0820   0.0000  -0.2709
 -11.000  -0.3483   0.00754   0.00302  -0.2023  0.1691  0.0039  -9.2838   0.0000  -0.3604
 -10.000  -0.2293   0.00719   0.00259  -0.2038  0.1433  0.0040  -7.7780   0.0000  -0.6778
  -9.500  -0.1696   0.00704   0.00241  -0.2046  0.1377  0.0041  -7.0681   0.0000  -1.0050
  -9.000  -0.1098   0.00690   0.00224  -0.2053  0.1277  0.0041  -6.3876   0.0000  -1.6897
  -8.500  -0.0500   0.00677   0.00209  -0.2061  0.1241  0.0041  -5.7339   0.0000  -4.0173
  -8.000   0.0099   0.00666   0.00196  -0.2068  0.1237  0.0042  -5.1097   0.0000  21.8690
  -7.500   0.0697   0.00656   0.00185  -0.2076  0.1235  0.0042  -4.5151   0.0000   3.3166
  -7.000   0.1295   0.00648   0.00175  -0.2083  0.1233  0.0043  -4.0471   0.0000   1.9026
  -6.500   0.1892   0.00641   0.00167  -0.2090  0.1229  0.0043  -3.6553   0.0000   1.3823
  -6.000   0.2489   0.00635   0.00160  -0.2096  0.1225  0.0043  -3.2789   0.0000   1.1118
  -5.500   0.3077   0.00637   0.00156  -0.2101  0.1014  0.0044  -2.9204   0.0000   0.9472
  -5.000   0.3670   0.00636   0.00153  -0.2107  0.0985  0.0044  -2.5751   0.0000   0.8351
  -4.500   0.4262   0.00635   0.00150  -0.2113  0.0956  0.0045  -2.2452   0.0000   0.7541
  -4.000   0.4852   0.00636   0.00149  -0.2119  0.0860  0.0045  -1.9314   0.0000   0.6929
  -3.500   0.5443   0.00637   0.00149  -0.2124  0.0843  0.0046  -1.6328   0.0000   0.6450
  -3.000   0.6032   0.00639   0.00150  -0.2129  0.0842  0.0048  -1.3500   0.0000   0.6065
  -2.500   0.6620   0.00642   0.00152  -0.2134  0.0840  0.0046  -1.0823   0.0000   0.5748
  -2.000   0.7205   0.00647   0.00155  -0.2139  0.0833  0.0053  -0.9611   0.0000   0.5482
  -1.500   0.7774   0.00666   0.00165  -0.2140  0.0509  0.0064  -1.0104   0.0000   0.5258
  -1.000   0.8353   0.00675   0.00172  -0.2144  0.0480  0.0074  -1.0626   0.0000   0.5063
  -0.500   0.8930   0.00685   0.00180  -0.2147  0.0453  0.0082  -1.1150   0.0000   0.4893
   0.000   0.9505   0.00695   0.00189  -0.2150  0.0428  0.0088  -1.1678   0.0000   0.4743
   0.500   1.0082   0.00705   0.00199  -0.2153  0.0405  0.0155  -1.2226   0.0000   0.4610
   1.000   1.0655   0.00716   0.00209  -0.2156  0.0433  0.0170  -1.2872   0.0000   0.4490
   1.500   1.1224   0.00729   0.00221  -0.2158  0.0422  0.0171  -1.3628   0.0000   0.4383
   2.000   1.1791   0.00743   0.00233  -0.2160  0.0405  0.0192  -1.4391   0.0000   0.4285
   2.500   1.2318   0.00790   0.00271  -0.2153  0.0020  0.0373  -1.5268   0.0000   0.4194
   3.500   1.3425   0.00833   0.00309  -0.2153  0.0013  0.0407  -1.7592   0.0000   0.4035
   4.000   1.3973   0.00856   0.00331  -0.2151  0.0014  0.0439  -1.9034   0.0000   0.3963
   4.500   1.4517   0.00881   0.00355  -0.2150  0.0013  0.0502  -2.0816   0.0000   0.3897
   5.000   1.5058   0.00906   0.00380  -0.2147  0.0013  0.0668  -2.2643   0.0000   0.3835
   5.500   1.5592   0.00935   0.00407  -0.2144  0.0013  0.0775  -2.4508   0.0000   0.3776
   6.000   1.6124   0.00963   0.00437  -0.2141  0.0012  0.1155  -2.6417   0.0000   0.3720
   7.000   1.7167   0.01028   0.00502  -0.2130  0.0012  0.1474  -3.0339   0.0000   0.3617
   7.500   1.7675   0.01064   0.00537  -0.2123  0.0012  0.1611  -3.2345   0.0000   0.3568
   8.000   1.8174   0.01103   0.00574  -0.2114  0.0012  0.1576  -3.4378   0.0000   0.3521
   8.500   1.8671   0.01143   0.00616  -0.2105  0.0012  0.1956  -3.6447   0.0000   0.3476
   9.000   1.9159   0.01184   0.00661  -0.2096  0.0012  0.2497  -3.9158   0.0000   0.3433
   9.500   1.9626   0.01231   0.00708  -0.2081  0.0012  0.2682  -4.2686   0.0000   0.3390
  10.000   2.0102   0.01276   0.00762  -0.2071  0.0011  0.3700  -4.8520   0.0000   0.3350
  10.500   2.0532   0.01331   0.00817  -0.2050  0.0011  0.3806  -5.4407   0.0000   0.3308
  11.000   2.0856   0.01392   0.00879  -0.2008  0.0011  0.3919  -5.9957   0.0000   0.3263
  11.500   2.1156   0.01461   0.00950  -0.1962  0.0011  0.4017  -6.5568   0.0000   0.3218
  12.000   2.1446   0.01544   0.01034  -0.1917  0.0010  0.4043  -7.1341   0.0000   0.3174
  12.500   2.1739   0.01638   0.01132  -0.1875  0.0010  0.4338  -7.7340   0.0000   0.3132
  13.500   2.2279   0.01875   0.01378  -0.1791  0.0009  0.4996  -8.9632   0.0000   0.3052
  14.000   2.2520   0.02023   0.01529  -0.1749  0.0009  0.5155  -9.5863   0.0000   0.3014
  14.500   2.2747   0.02191   0.01705  -0.1709  0.0009  0.5640  -10.2165   0.0000   0.2977
  15.000   2.2931   0.02401   0.01921  -0.1667  0.0008  0.5955  -10.8314   0.0000   0.2940
  15.500   2.2609   0.03031   0.02574  -0.1575  0.0013  0.6232  -10.9825   0.0000   0.2898
  16.000   2.2748   0.03343   0.02895  -0.1542  0.0018  0.6448  -11.5697   0.0000   0.2867
  16.500   2.2865   0.03699   0.03257  -0.1512  0.0022  0.6788  -12.1919   0.0000   0.2838
  17.000   2.2918   0.04111   0.03678  -0.1480  0.0025  0.6995  -12.7381   0.0000   0.2809
  17.500   2.2943   0.04605   0.04182  -0.1453  0.0029  0.7338  -13.2636   0.0000   0.2783
  18.000   2.3043   0.05047   0.04635  -0.1435  0.0034  0.7785  -13.8668   0.0000   0.2758
  18.500   2.3038   0.05647   0.05246  -0.1419  0.0037  0.8310  -14.3824   0.0000   0.2737
  19.000   2.3075   0.06332   0.05957  -0.1422  0.0040  1.0000  -14.9474   0.0000   0.2722
  19.500   2.2986   0.07052   0.06686  -0.1412  0.0042  1.0000  -15.3937   0.0000   0.2705


