XFLR5 v6.02 Beta

 Calculated polar for: WORTMANN FX 63-137

 1 1 Reynolds number fixed          Mach number fixed         

 xtrf =   1.000 (top)        1.000 (bottom)
 Mach =   0.000     Re =    30.750 e 6     Ncrit =   9.000

  alpha     CL        CD       CDp       CM    Top Xtr Bot Xtr   Cpmin    Chinge    XCp    
 ------- -------- --------- --------- -------- ------- ------- -------- --------- ---------
 -21.000  -1.1658   0.04928   0.04617  -0.1534  0.5953  0.0022  -25.6131   0.0000   0.0840
 -20.500  -1.1924   0.03990   0.03659  -0.1611  0.5620  0.0022  -25.7597   0.0000   0.0824
 -20.000  -1.2058   0.03282   0.02937  -0.1668  0.5409  0.0022  -25.6228   0.0000   0.0809
 -19.500  -1.2019   0.02795   0.02442  -0.1704  0.5316  0.0023  -25.1686   0.0000   0.0790
 -18.000  -1.1453   0.01740   0.01366  -0.1795  0.5053  0.0025  -23.1064   0.0000   0.0677
 -17.500  -1.0934   0.01505   0.01117  -0.1860  0.4655  0.0026  -22.0206   0.0000   0.0550
 -17.000  -1.0435   0.01398   0.00994  -0.1878  0.4015  0.0028  -20.9297   0.0000   0.0457
 -16.500  -0.9894   0.01303   0.00894  -0.1895  0.4007  0.0029  -19.8076   0.0000   0.0346
 -16.000  -0.9351   0.01226   0.00810  -0.1908  0.3757  0.0031  -18.7052   0.0000   0.0225
 -15.500  -0.8790   0.01156   0.00734  -0.1921  0.3658  0.0032  -17.6085   0.0000   0.0083
 -15.000  -0.8222   0.01096   0.00668  -0.1932  0.3563  0.0034  -16.5313   0.0000  -0.0080
 -14.500  -0.7647   0.01043   0.00610  -0.1943  0.3387  0.0035  -15.4742   0.0000  -0.0270
 -14.000  -0.7083   0.01006   0.00561  -0.1950  0.2789  0.0036  -14.4581   0.0000  -0.0483
 -13.000  -0.5917   0.00931   0.00473  -0.1968  0.2461  0.0037  -12.6182   0.0000  -0.1062
 -12.500  -0.5329   0.00898   0.00435  -0.1977  0.2375  0.0038  -11.7444   0.0000  -0.1454
 -12.000  -0.4745   0.00873   0.00401  -0.1985  0.1912  0.0038  -10.9020   0.0000  -0.1936
 -11.500  -0.4142   0.00839   0.00369  -0.1996  0.2203  0.0039  -10.0669   0.0000  -0.2587
 -11.000  -0.3556   0.00820   0.00340  -0.2002  0.1824  0.0039  -9.2793   0.0000  -0.3422
 -10.500  -0.2959   0.00797   0.00314  -0.2011  0.1752  0.0040  -8.5116   0.0000  -0.4622
 -10.000  -0.2361   0.00775   0.00290  -0.2020  0.1701  0.0040  -7.7726   0.0000  -0.6434
  -9.500  -0.1762   0.00756   0.00269  -0.2028  0.1694  0.0041  -7.0639   0.0000  -0.9485
  -9.000  -0.1168   0.00743   0.00250  -0.2035  0.1464  0.0041  -6.3912   0.0000  -1.5584
  -8.500  -0.0571   0.00730   0.00232  -0.2043  0.1407  0.0041  -5.7407   0.0000  -3.4511
  -8.000   0.0026   0.00718   0.00217  -0.2051  0.1354  0.0042  -5.1193   0.0000  81.0362
  -7.500   0.0624   0.00707   0.00204  -0.2058  0.1304  0.0042  -4.5269   0.0000   3.6448
  -7.000   0.1222   0.00698   0.00193  -0.2065  0.1268  0.0043  -4.0508   0.0000   1.9864
  -6.500   0.1820   0.00690   0.00183  -0.2073  0.1240  0.0043  -3.6611   0.0000   1.4178
  -6.000   0.2417   0.00683   0.00175  -0.2080  0.1237  0.0043  -3.2864   0.0000   1.1305
  -5.500   0.3012   0.00678   0.00169  -0.2086  0.1233  0.0044  -2.9267   0.0000   0.9571
  -5.000   0.3607   0.00674   0.00164  -0.2093  0.1229  0.0044  -2.5803   0.0000   0.8411
  -4.500   0.4201   0.00672   0.00160  -0.2099  0.1222  0.0045  -2.2524   0.0000   0.7580
  -4.000   0.4784   0.00679   0.00161  -0.2103  0.1014  0.0045  -1.9420   0.0000   0.6960
  -3.500   0.5370   0.00684   0.00162  -0.2108  0.0915  0.0046  -1.6453   0.0000   0.6473
  -3.000   0.5958   0.00686   0.00163  -0.2113  0.0883  0.0056  -1.3631   0.0000   0.6081
  -2.500   0.6545   0.00689   0.00165  -0.2118  0.0854  0.0058  -1.0954   0.0000   0.5759
  -2.000   0.7131   0.00694   0.00168  -0.2123  0.0842  0.0066  -0.9565   0.0000   0.5490
  -1.500   0.7714   0.00699   0.00172  -0.2127  0.0835  0.0081  -1.0066   0.0000   0.5262
  -1.000   0.8295   0.00706   0.00179  -0.2131  0.0823  0.0094  -1.0588   0.0000   0.5065
  -0.500   0.8860   0.00728   0.00192  -0.2132  0.0591  0.0149  -1.1101   0.0000   0.4895
   0.000   0.9434   0.00739   0.00201  -0.2134  0.0513  0.0154  -1.1627   0.0000   0.4744
   0.500   1.0005   0.00752   0.00213  -0.2137  0.0489  0.0159  -1.2166   0.0000   0.4610
   1.000   1.0578   0.00762   0.00223  -0.2140  0.0508  0.0171  -1.2807   0.0000   0.4490
   1.500   1.1146   0.00776   0.00235  -0.2142  0.0504  0.0173  -1.3560   0.0000   0.4381
   2.000   1.1708   0.00794   0.00251  -0.2142  0.0472  0.0208  -1.4316   0.0000   0.4283
   2.500   1.2226   0.00848   0.00293  -0.2134  0.0032  0.0375  -1.5172   0.0000   0.4192
   3.000   1.2778   0.00870   0.00314  -0.2134  0.0023  0.0382  -1.6295   0.0000   0.4108
   3.500   1.3327   0.00894   0.00335  -0.2132  0.0018  0.0450  -1.7465   0.0000   0.4031
   4.000   1.3871   0.00919   0.00360  -0.2131  0.0023  0.0485  -1.8860   0.0000   0.3960
   4.500   1.4413   0.00945   0.00386  -0.2129  0.0017  0.0662  -2.0631   0.0000   0.3893
   5.000   1.4947   0.00974   0.00413  -0.2125  0.0014  0.0704  -2.2440   0.0000   0.3830
   6.000   1.6009   0.01034   0.00477  -0.2118  0.0012  0.1463  -2.6190   0.0000   0.3716
   6.500   1.6525   0.01069   0.00511  -0.2112  0.0012  0.1640  -2.8113   0.0000   0.3662
   7.000   1.7039   0.01104   0.00548  -0.2106  0.0012  0.1950  -3.0075   0.0000   0.3612
   7.500   1.7538   0.01144   0.00587  -0.2097  0.0012  0.2093  -3.2057   0.0000   0.3563
   8.000   1.8025   0.01187   0.00629  -0.2086  0.0012  0.2043  -3.4058   0.0000   0.3515
   8.500   1.8527   0.01226   0.00678  -0.2079  0.0012  0.3078  -3.6127   0.0000   0.3471
   9.000   1.8993   0.01275   0.00727  -0.2064  0.0012  0.3280  -3.8675   0.0000   0.3427
  10.000   1.9901   0.01378   0.00844  -0.2034  0.0011  0.4593  -4.7303   0.0000   0.3342
  10.500   2.0210   0.01441   0.00908  -0.1988  0.0011  0.4674  -5.2430   0.0000   0.3295
  11.000   2.0515   0.01515   0.00984  -0.1944  0.0011  0.4856  -5.7744   0.0000   0.3249
  11.500   2.0820   0.01600   0.01073  -0.1902  0.0011  0.4998  -6.3314   0.0000   0.3205
  12.500   2.1384   0.01814   0.01294  -0.1818  0.0010  0.5354  -7.4784   0.0000   0.3120
  13.000   2.1654   0.01946   0.01430  -0.1778  0.0010  0.5644  -8.0734   0.0000   0.3081
  13.500   2.1906   0.02098   0.01589  -0.1739  0.0009  0.6071  -8.6749   0.0000   0.3042
  14.000   2.2111   0.02283   0.01781  -0.1696  0.0009  0.6477  -9.2611   0.0000   0.3004
  14.500   2.2315   0.02495   0.02002  -0.1658  0.0009  0.6888  -9.8618   0.0000   0.2969
  15.000   2.2502   0.02736   0.02248  -0.1622  0.0009  0.7164  -10.4667   0.0000   0.2935
  15.500   2.2671   0.03011   0.02532  -0.1588  0.0008  0.7555  -11.0737   0.0000   0.2902
  16.000   2.2835   0.03320   0.02851  -0.1559  0.0008  0.8163  -11.6914   0.0000   0.2872
  16.500   2.3026   0.03672   0.03228  -0.1543  0.0008  1.0000  -12.3476   0.0000   0.2846
  17.000   2.3104   0.04063   0.03624  -0.1512  0.0007  1.0000  -12.9212   0.0000   0.2817
  18.000   2.2573   0.05731   0.05327  -0.1434  0.0014  1.0000  -13.3775   0.0000   0.2770
  18.500   2.2489   0.06429   0.06036  -0.1418  0.0017  1.0000  -13.8221   0.0000   0.2751
  19.000   2.2485   0.07048   0.06662  -0.1409  0.0019  1.0000  -14.3687   0.0000   0.2732
  19.500   2.2385   0.07802   0.07425  -0.1404  0.0022  1.0000  -14.7969   0.0000   0.2718


