XFLR5 v6.02 Beta

 Calculated polar for: WORTMANN FX 63-137

 1 1 Reynolds number fixed          Mach number fixed         

 xtrf =   1.000 (top)        1.000 (bottom)
 Mach =   0.000     Re =    69.000 e 6     Ncrit =   9.000

  alpha     CL        CD       CDp       CM    Top Xtr Bot Xtr   Cpmin    Chinge    XCp    
 ------- -------- --------- --------- -------- ------- ------- -------- --------- ---------
 -22.500  -1.2434   0.05698   0.05383  -0.1503  0.4028  0.0014  -28.1965   0.0000   0.0914
 -22.000  -1.2864   0.04571   0.04243  -0.1592  0.4025  0.0014  -28.6570   0.0000   0.0907
 -21.500  -1.3090   0.03719   0.03382  -0.1660  0.4028  0.0014  -28.6907   0.0000   0.0895
 -21.000  -1.3112   0.03172   0.02828  -0.1700  0.4022  0.0014  -28.3178   0.0000   0.0882
 -20.500  -1.3116   0.02655   0.02304  -0.1739  0.4018  0.0014  -27.9019   0.0000   0.0868
 -20.000  -1.2969   0.02301   0.01946  -0.1761  0.4014  0.0014  -27.2237   0.0000   0.0849
 -19.000  -1.2516   0.01716   0.01352  -0.1807  0.4011  0.0014  -25.6384   0.0000   0.0787
 -18.500  -1.2004   0.01488   0.01119  -0.1868  0.4010  0.0015  -24.4986   0.0000   0.0682
 -17.500  -1.0969   0.01294   0.00904  -0.1905  0.3016  0.0016  -22.1771   0.0000   0.0514
 -17.000  -1.0424   0.01221   0.00827  -0.1918  0.2942  0.0017  -21.0130   0.0000   0.0417
 -16.500  -0.9869   0.01155   0.00758  -0.1929  0.2872  0.0018  -19.8614   0.0000   0.0306
 -16.000  -0.9304   0.01095   0.00696  -0.1940  0.2800  0.0019  -18.7276   0.0000   0.0179
 -15.500  -0.8733   0.01041   0.00638  -0.1950  0.2786  0.0020  -17.6149   0.0000   0.0034
 -15.000  -0.8166   0.00996   0.00586  -0.1959  0.2448  0.0021  -16.5357   0.0000  -0.0130
 -14.500  -0.7588   0.00952   0.00538  -0.1968  0.2219  0.0022  -15.4754   0.0000  -0.0325
 -14.000  -0.7002   0.00910   0.00493  -0.1978  0.2213  0.0024  -14.4386   0.0000  -0.0557
 -13.500  -0.6420   0.00876   0.00453  -0.1986  0.1946  0.0025  -13.5175   0.0000  -0.0829
 -13.000  -0.5830   0.00841   0.00415  -0.1996  0.1881  0.0026  -12.6211   0.0000  -0.1162
 -12.000  -0.4646   0.00780   0.00346  -0.2013  0.1455  0.0030  -10.9039   0.0000  -0.2092
 -11.500  -0.4048   0.00750   0.00314  -0.2023  0.1471  0.0034  -10.0795   0.0000  -0.2774
 -11.000  -0.3450   0.00725   0.00286  -0.2032  0.1428  0.0037  -9.2822   0.0000  -0.3690
 -10.500  -0.2852   0.00705   0.00263  -0.2040  0.1380  0.0039  -8.5111   0.0000  -0.4991
 -10.000  -0.2254   0.00687   0.00243  -0.2048  0.1330  0.0040  -7.7694   0.0000  -0.6984
  -9.500  -0.1656   0.00672   0.00226  -0.2056  0.1280  0.0041  -7.0577   0.0000  -1.0420
  -9.000  -0.1057   0.00659   0.00211  -0.2064  0.1238  0.0041  -6.3759   0.0000  -1.7749
  -8.500  -0.0459   0.00647   0.00197  -0.2071  0.1235  0.0041  -5.7219   0.0000  -4.4224
  -8.000   0.0140   0.00637   0.00185  -0.2079  0.1232  0.0042  -5.0975   0.0000  15.5926
  -7.500   0.0738   0.00628   0.00175  -0.2086  0.1228  0.0042  -4.5029   0.0000   3.1602
  -7.000   0.1336   0.00620   0.00166  -0.2093  0.1227  0.0043  -4.0413   0.0000   1.8594
  -6.500   0.1927   0.00618   0.00159  -0.2098  0.1017  0.0043  -3.6515   0.0000   1.3663
  -6.000   0.2521   0.00615   0.00153  -0.2104  0.0988  0.0043  -3.2753   0.0000   1.1038
  -5.500   0.3116   0.00612   0.00148  -0.2110  0.0961  0.0044  -2.9143   0.0000   0.9415
  -5.000   0.3709   0.00610   0.00145  -0.2116  0.0935  0.0044  -2.5686   0.0000   0.8313
  -4.500   0.4302   0.00609   0.00143  -0.2122  0.0871  0.0044  -2.2384   0.0000   0.7515
  -4.000   0.4894   0.00610   0.00142  -0.2128  0.0843  0.0045  -1.9238   0.0000   0.6911
  -3.500   0.5485   0.00610   0.00142  -0.2133  0.0842  0.0045  -1.6251   0.0000   0.6437
  -3.000   0.6074   0.00612   0.00143  -0.2139  0.0841  0.0046  -1.3423   0.0000   0.6055
  -2.500   0.6662   0.00615   0.00145  -0.2144  0.0838  0.0046  -1.0748   0.0000   0.5741
  -2.000   0.7232   0.00634   0.00153  -0.2145  0.0480  0.0048  -0.9626   0.0000   0.5479
  -1.500   0.7814   0.00641   0.00159  -0.2149  0.0450  0.0055  -1.0131   0.0000   0.5255
  -1.000   0.8395   0.00649   0.00165  -0.2153  0.0425  0.0065  -1.0654   0.0000   0.5061
  -0.500   0.8974   0.00657   0.00173  -0.2156  0.0403  0.0072  -1.1181   0.0000   0.4892
   0.000   0.9551   0.00667   0.00181  -0.2160  0.0383  0.0077  -1.1710   0.0000   0.4742
   0.500   1.0126   0.00677   0.00190  -0.2163  0.0381  0.0096  -1.2260   0.0000   0.4610
   1.000   1.0702   0.00686   0.00199  -0.2166  0.0394  0.0169  -1.2913   0.0000   0.4491
   1.500   1.1272   0.00699   0.00210  -0.2168  0.0386  0.0171  -1.3671   0.0000   0.4383
   2.000   1.1828   0.00722   0.00228  -0.2168  0.0261  0.0204  -1.4422   0.0000   0.4285
   3.500   1.3481   0.00798   0.00295  -0.2164  0.0013  0.0388  -1.7664   0.0000   0.4036
   4.000   1.4030   0.00820   0.00316  -0.2163  0.0013  0.0415  -1.9133   0.0000   0.3965
   4.500   1.4576   0.00844   0.00338  -0.2162  0.0013  0.0471  -2.0922   0.0000   0.3899
   5.000   1.5120   0.00868   0.00362  -0.2160  0.0013  0.0664  -2.2757   0.0000   0.3837
   5.500   1.5657   0.00895   0.00387  -0.2157  0.0013  0.0726  -2.4630   0.0000   0.3778
   6.000   1.6192   0.00923   0.00416  -0.2154  0.0012  0.1051  -2.6548   0.0000   0.3723
   6.500   1.6718   0.00953   0.00445  -0.2150  0.0012  0.1171  -2.8500   0.0000   0.3670
   7.500   1.7755   0.01019   0.00510  -0.2139  0.0012  0.1463  -3.2511   0.0000   0.3571
   8.000   1.8260   0.01055   0.00545  -0.2131  0.0012  0.1461  -3.4560   0.0000   0.3525
   8.500   1.8756   0.01094   0.00583  -0.2122  0.0012  0.1568  -3.6636   0.0000   0.3480
   9.000   1.9251   0.01133   0.00625  -0.2113  0.0012  0.2124  -3.9424   0.0000   0.3437
   9.500   1.9733   0.01176   0.00669  -0.2102  0.0012  0.2491  -4.3292   0.0000   0.3395
  10.500   2.0655   0.01271   0.00769  -0.2073  0.0011  0.3328  -5.5189   0.0000   0.3313
  13.000   2.2226   0.01643   0.01151  -0.1867  0.0009  0.4081  -8.5007   0.0000   0.3098
  13.500   2.2505   0.01757   0.01271  -0.1826  0.0009  0.4636  -9.1380   0.0000   0.3059
  14.500   2.2560   0.02296   0.01832  -0.1680  0.0016  0.4767  -10.0137   0.0000   0.2971
  15.000   2.2746   0.02516   0.02057  -0.1640  0.0021  0.5036  -10.6577   0.0000   0.2935
  15.500   2.2912   0.02772   0.02320  -0.1602  0.0026  0.5363  -11.2673   0.0000   0.2901
  16.000   2.3042   0.03075   0.02629  -0.1565  0.0030  0.5640  -11.8580   0.0000   0.2869
  16.500   2.3146   0.03419   0.02981  -0.1530  0.0034  0.5927  -12.4382   0.0000   0.2838
  17.000   2.3221   0.03810   0.03380  -0.1498  0.0037  0.6276  -13.0049   0.0000   0.2808
  17.500   2.3247   0.04250   0.03828  -0.1465  0.0042  0.6415  -13.5364   0.0000   0.2780
  18.000   2.3271   0.04748   0.04335  -0.1440  0.0044  0.6626  -14.0752   0.0000   0.2755
  18.500   2.3274   0.05301   0.04896  -0.1419  0.0046  0.6913  -14.6044   0.0000   0.2732
  19.000   2.3237   0.05928   0.05534  -0.1402  0.0046  0.7220  -15.1030   0.0000   0.2711
  19.500   2.3314   0.06428   0.06043  -0.1392  0.0046  0.7705  -15.7233   0.0000   0.2690
  20.000   2.3226   0.07159   0.06786  -0.1385  0.0047  0.8034  -16.1832   0.0000   0.2673
  20.500   2.3094   0.07942   0.07581  -0.1382  0.0047  0.8321  -16.6012   0.0000   0.2660


