XFLR5 v6.02 Beta

 Calculated polar for: WORTMANN FX 63-137

 1 1 Reynolds number fixed          Mach number fixed         

 xtrf =   1.000 (top)        1.000 (bottom)
 Mach =   0.000     Re =    27.500 e 6     Ncrit =   9.000

  alpha     CL        CD       CDp       CM    Top Xtr Bot Xtr   Cpmin    Chinge    XCp    
 ------- -------- --------- --------- -------- ------- ------- -------- --------- ---------
 -21.000  -1.1521   0.05111   0.04803  -0.1516  0.6173  0.0023  -25.3447   0.0000   0.0838
 -20.500  -1.1820   0.04117   0.03795  -0.1598  0.6031  0.0024  -25.5615   0.0000   0.0822
 -20.000  -1.1901   0.03455   0.03122  -0.1651  0.5952  0.0024  -25.3430   0.0000   0.0803
 -19.500  -1.1942   0.02880   0.02530  -0.1696  0.5569  0.0025  -25.0295   0.0000   0.0786
 -19.000  -1.1869   0.02430   0.02071  -0.1729  0.5458  0.0025  -24.5170   0.0000   0.0764
 -18.500  -1.1737   0.02088   0.01723  -0.1744  0.5377  0.0026  -23.8898   0.0000   0.0747
 -18.000  -1.1428   0.01788   0.01416  -0.1785  0.5318  0.0027  -23.0496   0.0000   0.0681
 -17.500  -1.0939   0.01545   0.01159  -0.1846  0.4945  0.0028  -22.0013   0.0000   0.0563
 -17.000  -1.0439   0.01423   0.01017  -0.1872  0.4193  0.0029  -20.9168   0.0000   0.0463
 -16.500  -0.9902   0.01326   0.00915  -0.1889  0.4041  0.0031  -19.8006   0.0000   0.0354
 -16.000  -0.9350   0.01243   0.00827  -0.1904  0.4011  0.0032  -18.6881   0.0000   0.0229
 -15.000  -0.8226   0.01115   0.00688  -0.1928  0.3764  0.0035  -16.5180   0.0000  -0.0073
 -14.500  -0.7656   0.01064   0.00629  -0.1938  0.3602  0.0036  -15.4659   0.0000  -0.0260
 -14.000  -0.7096   0.01029   0.00579  -0.1944  0.2926  0.0036  -14.4548   0.0000  -0.0469
 -13.500  -0.6513   0.00986   0.00531  -0.1954  0.2778  0.0037  -13.5006   0.0000  -0.0732
 -12.500  -0.5341   0.00915   0.00449  -0.1973  0.2478  0.0038  -11.7318   0.0000  -0.1435
 -12.000  -0.4754   0.00887   0.00413  -0.1981  0.2206  0.0039  -10.8868   0.0000  -0.1919
 -11.500  -0.4159   0.00856   0.00380  -0.1990  0.2216  0.0039  -10.0565   0.0000  -0.2554
 -11.000  -0.3572   0.00836   0.00351  -0.1998  0.1897  0.0040  -9.2677   0.0000  -0.3382
 -10.500  -0.2976   0.00813   0.00324  -0.2006  0.1821  0.0040  -8.5012   0.0000  -0.4563
 -10.000  -0.2378   0.00791   0.00299  -0.2015  0.1739  0.0040  -7.7628   0.0000  -0.6346
  -9.500  -0.1779   0.00771   0.00276  -0.2024  0.1699  0.0041  -7.0554   0.0000  -0.9337
  -9.000  -0.1180   0.00753   0.00255  -0.2032  0.1685  0.0041  -6.3817   0.0000  -1.5372
  -8.500  -0.0587   0.00742   0.00239  -0.2039  0.1453  0.0041  -5.7350   0.0000  -3.3450
  -8.000   0.0010   0.00730   0.00223  -0.2046  0.1399  0.0042  -5.1155   0.0000  217.6243
  -7.500   0.0607   0.00719   0.00209  -0.2054  0.1347  0.0042  -4.5250   0.0000   3.7338
  -7.000   0.1205   0.00710   0.00197  -0.2061  0.1310  0.0043  -4.0490   0.0000   2.0077
  -6.500   0.1803   0.00701   0.00187  -0.2069  0.1265  0.0043  -3.6604   0.0000   1.4266
  -6.000   0.2399   0.00695   0.00179  -0.2076  0.1240  0.0043  -3.2868   0.0000   1.1351
  -5.500   0.2995   0.00689   0.00172  -0.2082  0.1236  0.0044  -2.9274   0.0000   0.9598
  -5.000   0.3590   0.00685   0.00167  -0.2089  0.1232  0.0044  -2.5815   0.0000   0.8428
  -4.500   0.4184   0.00683   0.00163  -0.2095  0.1226  0.0045  -2.2544   0.0000   0.7591
  -4.000   0.4776   0.00682   0.00161  -0.2101  0.1220  0.0045  -1.9415   0.0000   0.6963
  -3.500   0.5352   0.00695   0.00165  -0.2104  0.0935  0.0046  -1.6480   0.0000   0.6479
  -3.000   0.5941   0.00697   0.00165  -0.2109  0.0903  0.0059  -1.3659   0.0000   0.6085
  -2.500   0.6528   0.00700   0.00167  -0.2114  0.0871  0.0063  -1.0981   0.0000   0.5762
  -2.000   0.7113   0.00705   0.00170  -0.2119  0.0843  0.0070  -0.9553   0.0000   0.5492
  -1.500   0.7696   0.00710   0.00175  -0.2123  0.0838  0.0085  -1.0054   0.0000   0.5263
  -1.000   0.8277   0.00718   0.00182  -0.2127  0.0827  0.0099  -1.0576   0.0000   0.5066
  -0.500   0.8848   0.00734   0.00193  -0.2129  0.0664  0.0152  -1.1094   0.0000   0.4895
   0.000   0.9416   0.00750   0.00205  -0.2131  0.0553  0.0155  -1.1614   0.0000   0.4744
   0.500   0.9987   0.00763   0.00216  -0.2133  0.0508  0.0159  -1.2153   0.0000   0.4610
   1.000   1.0560   0.00774   0.00226  -0.2136  0.0517  0.0171  -1.2790   0.0000   0.4490
   1.500   1.1128   0.00787   0.00239  -0.2138  0.0516  0.0173  -1.3543   0.0000   0.4381
   2.000   1.1691   0.00803   0.00254  -0.2139  0.0497  0.0214  -1.4301   0.0000   0.4282
   2.500   1.2205   0.00861   0.00298  -0.2130  0.0035  0.0376  -1.5150   0.0000   0.4191
   3.000   1.2756   0.00885   0.00319  -0.2129  0.0026  0.0383  -1.6267   0.0000   0.4108
   3.500   1.3304   0.00909   0.00342  -0.2128  0.0021  0.0460  -1.7435   0.0000   0.4031
   4.000   1.3847   0.00934   0.00366  -0.2126  0.0025  0.0497  -1.8818   0.0000   0.3959
   4.500   1.4388   0.00961   0.00393  -0.2123  0.0019  0.0664  -2.0587   0.0000   0.3892
   5.000   1.4921   0.00990   0.00421  -0.2120  0.0014  0.0730  -2.2392   0.0000   0.3829
   5.500   1.5452   0.01020   0.00452  -0.2116  0.0013  0.1025  -2.4243   0.0000   0.3770
   6.000   1.5980   0.01051   0.00486  -0.2112  0.0012  0.1511  -2.6134   0.0000   0.3715
   7.500   1.7507   0.01162   0.00600  -0.2091  0.0012  0.2232  -3.1990   0.0000   0.3562
   8.000   1.7991   0.01207   0.00642  -0.2079  0.0012  0.2181  -3.3983   0.0000   0.3514
   8.500   1.8490   0.01247   0.00693  -0.2072  0.0012  0.3273  -3.6045   0.0000   0.3470
   9.500   1.9401   0.01349   0.00799  -0.2040  0.0011  0.3759  -4.1389   0.0000   0.3382
  10.000   1.9847   0.01403   0.00864  -0.2024  0.0011  0.4747  -4.6979   0.0000   0.3340
  11.000   2.0438   0.01546   0.01011  -0.1930  0.0011  0.4985  -5.7254   0.0000   0.3246
  11.500   2.0749   0.01634   0.01103  -0.1890  0.0011  0.5237  -6.2818   0.0000   0.3202
  12.000   2.1033   0.01737   0.01210  -0.1847  0.0010  0.5431  -6.8458   0.0000   0.3160
  12.500   2.1309   0.01857   0.01334  -0.1806  0.0010  0.5628  -7.4237   0.0000   0.3118
  13.000   2.1566   0.01998   0.01480  -0.1765  0.0010  0.5930  -8.0076   0.0000   0.3078
  13.500   2.1807   0.02160   0.01649  -0.1726  0.0009  0.6331  -8.5991   0.0000   0.3040
  14.000   2.2021   0.02348   0.01845  -0.1686  0.0009  0.6816  -9.1890   0.0000   0.3003
  14.500   2.2220   0.02566   0.02069  -0.1647  0.0009  0.7067  -9.7851   0.0000   0.2967
  15.000   2.2414   0.02812   0.02324  -0.1613  0.0009  0.7484  -10.3920   0.0000   0.2934
  15.500   2.2590   0.03094   0.02615  -0.1582  0.0008  0.8003  -11.0017   0.0000   0.2902
  16.000   2.2807   0.03410   0.02957  -0.1565  0.0008  1.0000  -11.6621   0.0000   0.2875
  16.500   2.2915   0.03772   0.03324  -0.1534  0.0008  1.0000  -12.2450   0.0000   0.2845
  17.000   2.2982   0.04178   0.03736  -0.1503  0.0008  1.0000  -12.8054   0.0000   0.2817
  19.500   2.2151   0.08073   0.07696  -0.1401  0.0017  1.0000  -14.5286   0.0000   0.2722


