XFLR5 v6.02 Beta

 Calculated polar for: WORTMANN FX 63-137

 1 1 Reynolds number fixed          Mach number fixed         

 xtrf =   1.000 (top)        1.000 (bottom)
 Mach =   0.000     Re =    51.750 e 6     Ncrit =   9.000

  alpha     CL        CD       CDp       CM    Top Xtr Bot Xtr   Cpmin    Chinge    XCp    
 ------- -------- --------- --------- -------- ------- ------- -------- --------- ---------
 -21.500  -1.2450   0.04503   0.04175  -0.1587  0.4660  0.0015  -27.4890   0.0000   0.0878
 -21.000  -1.2660   0.03669   0.03331  -0.1654  0.4658  0.0015  -27.4968   0.0000   0.0865
 -20.500  -1.2688   0.03119   0.02771  -0.1695  0.4402  0.0016  -27.1434   0.0000   0.0852
 -20.000  -1.2667   0.02623   0.02267  -0.1731  0.4333  0.0016  -26.6970   0.0000   0.0836
 -19.500  -1.2521   0.02267   0.01905  -0.1754  0.4286  0.0016  -26.0348   0.0000   0.0815
 -19.000  -1.2396   0.01951   0.01583  -0.1765  0.4239  0.0017  -25.3858   0.0000   0.0805
 -18.500  -1.2007   0.01688   0.01314  -0.1810  0.4175  0.0018  -24.4107   0.0000   0.0731
 -17.500  -1.0964   0.01373   0.00980  -0.1889  0.3384  0.0019  -22.1328   0.0000   0.0528
 -16.000  -0.9323   0.01148   0.00740  -0.1928  0.3064  0.0022  -18.7232   0.0000   0.0197
 -15.500  -0.8757   0.01088   0.00676  -0.1939  0.3018  0.0024  -17.6187   0.0000   0.0054
 -15.000  -0.8185   0.01033   0.00617  -0.1949  0.2926  0.0025  -16.5366   0.0000  -0.0113
 -14.500  -0.7617   0.00989   0.00563  -0.1958  0.2394  0.0027  -15.4891   0.0000  -0.0300
 -14.000  -0.7034   0.00943   0.00514  -0.1968  0.2301  0.0028  -14.4552   0.0000  -0.0529
 -13.500  -0.6446   0.00903   0.00471  -0.1978  0.2214  0.0029  -13.5309   0.0000  -0.0802
 -13.000  -0.5855   0.00864   0.00429  -0.1988  0.2208  0.0031  -12.6317   0.0000  -0.1134
 -12.500  -0.5271   0.00835   0.00392  -0.1996  0.1731  0.0033  -11.7645   0.0000  -0.1532
 -12.000  -0.4675   0.00803   0.00357  -0.2005  0.1694  0.0036  -10.9125   0.0000  -0.2046
 -11.500  -0.4078   0.00774   0.00326  -0.2015  0.1695  0.0038  -10.0817   0.0000  -0.2714
 -11.000  -0.3481   0.00751   0.00301  -0.2023  0.1690  0.0039  -9.2835   0.0000  -0.3611
 -10.500  -0.2883   0.00731   0.00278  -0.2032  0.1688  0.0040  -8.5138   0.0000  -0.4882
 -10.000  -0.2291   0.00717   0.00258  -0.2039  0.1426  0.0040  -7.7777   0.0000  -0.6791
  -9.500  -0.1694   0.00702   0.00240  -0.2046  0.1370  0.0041  -7.0676   0.0000  -1.0073
  -9.000  -0.1096   0.00688   0.00223  -0.2054  0.1270  0.0041  -6.3869   0.0000  -1.6951
  -8.500  -0.0497   0.00675   0.00209  -0.2062  0.1240  0.0041  -5.7332   0.0000  -4.0418
  -8.000   0.0101   0.00664   0.00196  -0.2069  0.1237  0.0042  -5.1090   0.0000  21.3028
  -7.500   0.0700   0.00654   0.00184  -0.2076  0.1234  0.0042  -4.5144   0.0000   3.3058
  -7.000   0.1298   0.00646   0.00174  -0.2084  0.1232  0.0043  -4.0467   0.0000   1.8997
  -6.500   0.1895   0.00639   0.00166  -0.2090  0.1228  0.0043  -3.6550   0.0000   1.3810
  -6.000   0.2491   0.00634   0.00160  -0.2097  0.1225  0.0043  -3.2785   0.0000   1.1112
  -5.500   0.3079   0.00636   0.00156  -0.2102  0.1010  0.0044  -2.9201   0.0000   0.9469
  -5.000   0.3672   0.00634   0.00152  -0.2108  0.0982  0.0044  -2.5748   0.0000   0.8348
  -4.500   0.4264   0.00634   0.00149  -0.2114  0.0951  0.0045  -2.2448   0.0000   0.7539
  -4.000   0.4855   0.00634   0.00149  -0.2119  0.0857  0.0045  -1.9309   0.0000   0.6928
  -3.500   0.5446   0.00635   0.00148  -0.2125  0.0843  0.0046  -1.6323   0.0000   0.6449
  -3.000   0.6035   0.00637   0.00149  -0.2130  0.0842  0.0047  -1.3495   0.0000   0.6064
  -2.500   0.6622   0.00640   0.00151  -0.2135  0.0840  0.0046  -1.0818   0.0000   0.5747
  -2.000   0.7208   0.00645   0.00155  -0.2140  0.0832  0.0053  -0.9613   0.0000   0.5482
  -1.500   0.7776   0.00664   0.00165  -0.2141  0.0505  0.0063  -1.0106   0.0000   0.5258
  -1.000   0.8355   0.00673   0.00172  -0.2144  0.0476  0.0074  -1.0628   0.0000   0.5063
  -0.500   0.8933   0.00683   0.00180  -0.2147  0.0449  0.0081  -1.1152   0.0000   0.4893
   0.000   0.9509   0.00693   0.00189  -0.2150  0.0425  0.0088  -1.1680   0.0000   0.4743
   0.500   1.0085   0.00703   0.00198  -0.2154  0.0402  0.0155  -1.2228   0.0000   0.4610
   1.000   1.0658   0.00714   0.00208  -0.2157  0.0431  0.0170  -1.2875   0.0000   0.4490
   1.500   1.1228   0.00727   0.00220  -0.2159  0.0420  0.0171  -1.3631   0.0000   0.4383
   2.000   1.1794   0.00741   0.00233  -0.2161  0.0403  0.0192  -1.4394   0.0000   0.4285
   2.500   1.2321   0.00788   0.00270  -0.2154  0.0019  0.0372  -1.5272   0.0000   0.4194
   3.500   1.3429   0.00830   0.00308  -0.2153  0.0013  0.0405  -1.7597   0.0000   0.4035
   4.000   1.3977   0.00854   0.00330  -0.2152  0.0014  0.0438  -1.9040   0.0000   0.3964
   4.500   1.4521   0.00878   0.00354  -0.2150  0.0013  0.0500  -2.0823   0.0000   0.3897
   5.000   1.5062   0.00904   0.00379  -0.2148  0.0013  0.0668  -2.2651   0.0000   0.3835
   5.500   1.5596   0.00932   0.00406  -0.2145  0.0013  0.0771  -2.4516   0.0000   0.3776
   6.000   1.6129   0.00961   0.00436  -0.2142  0.0012  0.1148  -2.6426   0.0000   0.3720
   7.000   1.7172   0.01025   0.00500  -0.2131  0.0012  0.1468  -3.0349   0.0000   0.3617
   7.500   1.7680   0.01061   0.00535  -0.2124  0.0012  0.1598  -3.2356   0.0000   0.3568
   8.000   1.8180   0.01100   0.00572  -0.2115  0.0012  0.1564  -3.4390   0.0000   0.3521
   8.500   1.8677   0.01139   0.00614  -0.2107  0.0012  0.1953  -3.6461   0.0000   0.3477
   9.000   1.9166   0.01181   0.00659  -0.2097  0.0012  0.2494  -3.9177   0.0000   0.3433
   9.500   1.9633   0.01227   0.00705  -0.2083  0.0012  0.2656  -4.2724   0.0000   0.3391
  10.000   2.0110   0.01272   0.00760  -0.2072  0.0011  0.3694  -4.8567   0.0000   0.3350
  10.500   2.0540   0.01327   0.00814  -0.2051  0.0011  0.3770  -5.4461   0.0000   0.3309
  11.000   2.0870   0.01388   0.00875  -0.2010  0.0011  0.3885  -6.0049   0.0000   0.3264
  11.500   2.1169   0.01456   0.00946  -0.1964  0.0011  0.3983  -6.5655   0.0000   0.3218
  12.000   2.1460   0.01538   0.01029  -0.1919  0.0010  0.4002  -7.1436   0.0000   0.3175
  13.000   2.2035   0.01740   0.01241  -0.1836  0.0010  0.4921  -8.3575   0.0000   0.3092
  13.500   2.2293   0.01867   0.01372  -0.1793  0.0009  0.4992  -8.9743   0.0000   0.3053
  14.000   2.2532   0.02015   0.01522  -0.1751  0.0009  0.5095  -9.5966   0.0000   0.3014
  14.500   2.2761   0.02183   0.01697  -0.1711  0.0008  0.5621  -10.2281   0.0000   0.2977
  15.500   2.2640   0.03002   0.02545  -0.1577  0.0014  0.6131  -11.0002   0.0000   0.2899
  16.000   2.2760   0.03331   0.02883  -0.1542  0.0018  0.6385  -11.5894   0.0000   0.2867
  16.500   2.2881   0.03680   0.03239  -0.1513  0.0022  0.6677  -12.2072   0.0000   0.2838
  17.000   2.2936   0.04093   0.03661  -0.1481  0.0025  0.6927  -12.7537   0.0000   0.2809
  17.500   2.2957   0.04586   0.04163  -0.1454  0.0030  0.7220  -13.2767   0.0000   0.2783
  18.000   2.3061   0.05026   0.04613  -0.1435  0.0035  0.7743  -13.8827   0.0000   0.2758
  18.500   2.3052   0.05626   0.05226  -0.1419  0.0038  0.8246  -14.3956   0.0000   0.2737


