XFLR5 v6.02 Beta

 Calculated polar for: WORTMANN FX 63-137

 1 1 Reynolds number fixed          Mach number fixed         

 xtrf =   1.000 (top)        1.000 (bottom)
 Mach =   0.000     Re =    53.250 e 6     Ncrit =   9.000

  alpha     CL        CD       CDp       CM    Top Xtr Bot Xtr   Cpmin    Chinge    XCp    
 ------- -------- --------- --------- -------- ------- ------- -------- --------- ---------
 -20.500  -1.2784   0.03010   0.02660  -0.1705  0.4333  0.0015  -27.3130   0.0000   0.0855
 -20.000  -1.2695   0.02596   0.02239  -0.1733  0.4292  0.0016  -26.7443   0.0000   0.0837
 -19.500  -1.2555   0.02232   0.01869  -0.1757  0.4245  0.0016  -26.0912   0.0000   0.0816
 -19.000  -1.2412   0.01928   0.01561  -0.1768  0.4197  0.0017  -25.4157   0.0000   0.0804
 -18.500  -1.2011   0.01665   0.01292  -0.1815  0.4132  0.0017  -24.4257   0.0000   0.0726
 -18.000  -1.1480   0.01464   0.01078  -0.1874  0.3668  0.0018  -23.2825   0.0000   0.0613
 -17.500  -1.0964   0.01365   0.00972  -0.1891  0.3381  0.0019  -22.1363   0.0000   0.0527
 -16.000  -0.9322   0.01144   0.00736  -0.1929  0.3037  0.0022  -18.7245   0.0000   0.0196
 -15.500  -0.8755   0.01084   0.00672  -0.1940  0.2991  0.0023  -17.6191   0.0000   0.0052
 -15.000  -0.8182   0.01029   0.00614  -0.1950  0.2885  0.0025  -16.5359   0.0000  -0.0115
 -14.500  -0.7615   0.00986   0.00561  -0.1959  0.2373  0.0026  -15.4880   0.0000  -0.0302
 -14.000  -0.7031   0.00940   0.00512  -0.1969  0.2280  0.0028  -14.4536   0.0000  -0.0532
 -13.500  -0.6443   0.00900   0.00469  -0.1979  0.2212  0.0029  -13.5293   0.0000  -0.0805
 -12.000  -0.4672   0.00800   0.00356  -0.2006  0.1693  0.0035  -10.9122   0.0000  -0.2052
 -11.500  -0.4074   0.00771   0.00324  -0.2016  0.1694  0.0038  -10.0814   0.0000  -0.2722
 -11.000  -0.3477   0.00748   0.00299  -0.2025  0.1690  0.0039  -9.2828   0.0000  -0.3621
 -10.500  -0.2883   0.00731   0.00277  -0.2032  0.1497  0.0040  -8.5165   0.0000  -0.4881
 -10.000  -0.2287   0.00714   0.00256  -0.2040  0.1416  0.0040  -7.7771   0.0000  -0.6809
  -9.500  -0.1690   0.00699   0.00238  -0.2047  0.1361  0.0041  -7.0668   0.0000  -1.0107
  -9.000  -0.1092   0.00685   0.00222  -0.2055  0.1261  0.0041  -6.3860   0.0000  -1.7030
  -8.500  -0.0493   0.00672   0.00207  -0.2063  0.1239  0.0041  -5.7322   0.0000  -4.0779
  -8.000   0.0105   0.00661   0.00195  -0.2070  0.1237  0.0042  -5.1079   0.0000  20.5295
  -7.500   0.0704   0.00651   0.00183  -0.2077  0.1234  0.0042  -4.5133   0.0000   3.2902
  -7.000   0.1301   0.00643   0.00174  -0.2084  0.1232  0.0043  -4.0463   0.0000   1.8955
  -6.500   0.1899   0.00637   0.00165  -0.2091  0.1227  0.0043  -3.6544   0.0000   1.3792
  -6.000   0.2489   0.00636   0.00161  -0.2097  0.1043  0.0043  -3.2801   0.0000   1.1117
  -5.500   0.3083   0.00633   0.00155  -0.2103  0.1005  0.0044  -2.9196   0.0000   0.9463
  -5.000   0.3676   0.00632   0.00151  -0.2109  0.0977  0.0044  -2.5742   0.0000   0.8345
  -4.500   0.4268   0.00631   0.00149  -0.2115  0.0945  0.0045  -2.2442   0.0000   0.7537
  -4.000   0.4859   0.00632   0.00148  -0.2120  0.0853  0.0045  -1.9302   0.0000   0.6926
  -3.500   0.5450   0.00633   0.00148  -0.2126  0.0843  0.0046  -1.6316   0.0000   0.6448
  -3.000   0.6039   0.00635   0.00149  -0.2131  0.0842  0.0047  -1.3488   0.0000   0.6063
  -2.500   0.6627   0.00638   0.00151  -0.2136  0.0840  0.0046  -1.0811   0.0000   0.5747
  -2.000   0.7212   0.00643   0.00154  -0.2140  0.0829  0.0052  -0.9615   0.0000   0.5481
  -1.500   0.7780   0.00662   0.00164  -0.2141  0.0499  0.0062  -1.0108   0.0000   0.5257
  -1.000   0.8359   0.00671   0.00171  -0.2145  0.0470  0.0073  -1.0630   0.0000   0.5062
  -0.500   0.8937   0.00680   0.00179  -0.2148  0.0445  0.0080  -1.1155   0.0000   0.4893
   0.000   0.9513   0.00691   0.00188  -0.2151  0.0421  0.0087  -1.1683   0.0000   0.4743
   0.500   1.0089   0.00700   0.00197  -0.2155  0.0398  0.0155  -1.2231   0.0000   0.4610
   1.000   1.0663   0.00711   0.00207  -0.2157  0.0427  0.0170  -1.2879   0.0000   0.4490
   1.500   1.1232   0.00724   0.00219  -0.2160  0.0416  0.0171  -1.3635   0.0000   0.4383
   2.000   1.1799   0.00738   0.00232  -0.2162  0.0399  0.0194  -1.4398   0.0000   0.4285
   2.500   1.2326   0.00785   0.00269  -0.2155  0.0019  0.0372  -1.5277   0.0000   0.4194
   3.500   1.3434   0.00827   0.00307  -0.2154  0.0013  0.0403  -1.7604   0.0000   0.4035
   4.000   1.3982   0.00850   0.00329  -0.2153  0.0014  0.0436  -1.9050   0.0000   0.3964
   4.500   1.4527   0.00875   0.00352  -0.2151  0.0013  0.0497  -2.0833   0.0000   0.3897
   5.000   1.5068   0.00900   0.00377  -0.2149  0.0013  0.0667  -2.2661   0.0000   0.3835
   5.500   1.5602   0.00928   0.00404  -0.2146  0.0013  0.0767  -2.4528   0.0000   0.3776
   6.000   1.6135   0.00957   0.00434  -0.2143  0.0012  0.1138  -2.6438   0.0000   0.3720
   7.000   1.7179   0.01021   0.00498  -0.2133  0.0012  0.1466  -3.0364   0.0000   0.3617
   7.500   1.7688   0.01057   0.00532  -0.2126  0.0012  0.1578  -3.2372   0.0000   0.3569
   8.000   1.8188   0.01096   0.00570  -0.2117  0.0012  0.1545  -3.4407   0.0000   0.3522
   8.500   1.8686   0.01134   0.00611  -0.2108  0.0012  0.1949  -3.6480   0.0000   0.3477
   9.000   1.9175   0.01176   0.00655  -0.2099  0.0012  0.2491  -3.9204   0.0000   0.3434
   9.500   1.9643   0.01222   0.00701  -0.2085  0.0012  0.2619  -4.2781   0.0000   0.3391
  10.000   2.0122   0.01267   0.00756  -0.2074  0.0011  0.3690  -4.8635   0.0000   0.3351
  10.500   2.0553   0.01321   0.00810  -0.2054  0.0011  0.3721  -5.4541   0.0000   0.3309
  11.000   2.0893   0.01381   0.00870  -0.2015  0.0011  0.3834  -6.0197   0.0000   0.3265
  11.500   2.1187   0.01449   0.00939  -0.1968  0.0011  0.3932  -6.5777   0.0000   0.3219
  12.000   2.1479   0.01530   0.01021  -0.1923  0.0010  0.3951  -7.1569   0.0000   0.3175
  13.000   2.2053   0.01730   0.01232  -0.1839  0.0010  0.4802  -8.3705   0.0000   0.3093
  13.500   2.2315   0.01856   0.01362  -0.1797  0.0009  0.4986  -8.9908   0.0000   0.3053
  14.000   2.2552   0.02003   0.01511  -0.1753  0.0009  0.5013  -9.6125   0.0000   0.3014
  14.500   2.2777   0.02170   0.01685  -0.1713  0.0008  0.5538  -10.2424   0.0000   0.2977
  17.000   2.2964   0.04066   0.03634  -0.1483  0.0027  0.6902  -12.7787   0.0000   0.2809
  17.500   2.2983   0.04556   0.04133  -0.1455  0.0031  0.7166  -13.2993   0.0000   0.2783
  18.000   2.3076   0.04998   0.04585  -0.1434  0.0036  0.7568  -13.8965   0.0000   0.2758
  18.500   2.3068   0.05595   0.05193  -0.1418  0.0039  0.8045  -14.4106   0.0000   0.2736
  19.500   2.3036   0.06992   0.06627  -0.1413  0.0043  1.0000  -15.4439   0.0000   0.2704


