XFLR5 v6.02 Beta

 Calculated polar for: WORTMANN FX 63-137

 1 1 Reynolds number fixed          Mach number fixed         

 xtrf =   1.000 (top)        1.000 (bottom)
 Mach =   0.000     Re =    26.500 e 6     Ncrit =   9.000

  alpha     CL        CD       CDp       CM    Top Xtr Bot Xtr   Cpmin    Chinge    XCp    
 ------- -------- --------- --------- -------- ------- ------- -------- --------- ---------
 -21.000  -1.1458   0.05199   0.04897  -0.1507  0.6305  0.0024  -25.2201   0.0000   0.0838
 -20.500  -1.1788   0.04159   0.03838  -0.1593  0.6190  0.0024  -25.4985   0.0000   0.0822
 -20.000  -1.1868   0.03497   0.03164  -0.1646  0.5965  0.0025  -25.2811   0.0000   0.0803
 -19.500  -1.1916   0.02903   0.02557  -0.1694  0.5747  0.0025  -24.9835   0.0000   0.0784
 -19.000  -1.1828   0.02475   0.02118  -0.1724  0.5552  0.0026  -24.4469   0.0000   0.0762
 -18.500  -1.1708   0.02108   0.01743  -0.1744  0.5471  0.0027  -23.8438   0.0000   0.0743
 -18.000  -1.1423   0.01810   0.01438  -0.1780  0.5356  0.0027  -23.0323   0.0000   0.0685
 -17.500  -1.0926   0.01553   0.01174  -0.1844  0.5303  0.0029  -21.9757   0.0000   0.0563
 -17.000  -1.0435   0.01430   0.01025  -0.1871  0.4294  0.0030  -20.9060   0.0000   0.0464
 -16.500  -0.9904   0.01335   0.00922  -0.1887  0.4117  0.0031  -19.7961   0.0000   0.0356
 -16.000  -0.9353   0.01252   0.00835  -0.1902  0.4020  0.0033  -18.6845   0.0000   0.0232
 -15.500  -0.8790   0.01180   0.00759  -0.1915  0.4008  0.0034  -17.5852   0.0000   0.0089
 -14.500  -0.7656   0.01070   0.00636  -0.1937  0.3672  0.0036  -15.4598   0.0000  -0.0258
 -14.000  -0.7100   0.01036   0.00585  -0.1943  0.2983  0.0037  -14.4517   0.0000  -0.0465
 -13.500  -0.6518   0.00994   0.00537  -0.1952  0.2783  0.0037  -13.4958   0.0000  -0.0727
 -13.000  -0.5929   0.00953   0.00493  -0.1963  0.2771  0.0038  -12.5955   0.0000  -0.1045
 -12.500  -0.5346   0.00921   0.00455  -0.1971  0.2551  0.0038  -11.7264   0.0000  -0.1429
 -12.000  -0.4760   0.00893   0.00418  -0.1979  0.2214  0.0039  -10.8824   0.0000  -0.1910
 -11.500  -0.4165   0.00863   0.00385  -0.1989  0.2229  0.0039  -10.0514   0.0000  -0.2542
 -11.000  -0.3577   0.00841   0.00355  -0.1996  0.1926  0.0040  -9.2617   0.0000  -0.3370
 -10.500  -0.2982   0.00818   0.00327  -0.2005  0.1845  0.0040  -8.4957   0.0000  -0.4544
 -10.000  -0.2385   0.00796   0.00302  -0.2013  0.1765  0.0040  -7.7575   0.0000  -0.6317
  -9.500  -0.1786   0.00776   0.00279  -0.2022  0.1701  0.0041  -7.0507   0.0000  -0.9287
  -9.000  -0.1186   0.00757   0.00258  -0.2030  0.1687  0.0041  -6.3785   0.0000  -1.5267
  -8.500  -0.0593   0.00746   0.00241  -0.2038  0.1488  0.0041  -5.7319   0.0000  -3.3095
  -8.000   0.0004   0.00734   0.00225  -0.2045  0.1414  0.0042  -5.1130   0.0000  483.0205
  -7.500   0.0602   0.00723   0.00211  -0.2053  0.1361  0.0042  -4.5234   0.0000   3.7645
  -7.000   0.1199   0.00714   0.00198  -0.2060  0.1324  0.0043  -4.0478   0.0000   2.0151
  -6.500   0.1797   0.00705   0.00188  -0.2067  0.1279  0.0043  -3.6598   0.0000   1.4296
  -6.000   0.2394   0.00699   0.00180  -0.2074  0.1241  0.0043  -3.2866   0.0000   1.1366
  -5.500   0.2990   0.00693   0.00173  -0.2081  0.1237  0.0044  -2.9273   0.0000   0.9607
  -5.000   0.3585   0.00689   0.00168  -0.2088  0.1233  0.0044  -2.5817   0.0000   0.8434
  -4.500   0.4178   0.00687   0.00164  -0.2094  0.1228  0.0045  -2.2550   0.0000   0.7595
  -4.000   0.4770   0.00686   0.00162  -0.2100  0.1221  0.0045  -1.9423   0.0000   0.6965
  -3.500   0.5347   0.00698   0.00165  -0.2102  0.0943  0.0046  -1.6489   0.0000   0.6480
  -3.000   0.5935   0.00701   0.00166  -0.2108  0.0910  0.0060  -1.3669   0.0000   0.6086
  -2.500   0.6522   0.00704   0.00168  -0.2113  0.0877  0.0065  -1.0989   0.0000   0.5763
  -2.000   0.7107   0.00709   0.00171  -0.2117  0.0843  0.0071  -0.9550   0.0000   0.5493
  -1.500   0.7690   0.00714   0.00176  -0.2122  0.0839  0.0087  -1.0050   0.0000   0.5264
   0.000   0.9410   0.00754   0.00206  -0.2129  0.0574  0.0155  -1.1610   0.0000   0.4744
   0.500   0.9981   0.00766   0.00217  -0.2132  0.0512  0.0159  -1.2148   0.0000   0.4610
   1.000   1.0553   0.00778   0.00228  -0.2134  0.0532  0.0171  -1.2785   0.0000   0.4490
   1.500   1.1121   0.00791   0.00240  -0.2136  0.0521  0.0173  -1.3538   0.0000   0.4381
   2.000   1.1685   0.00807   0.00254  -0.2138  0.0505  0.0216  -1.4296   0.0000   0.4282
   2.500   1.2198   0.00866   0.00300  -0.2128  0.0036  0.0376  -1.5142   0.0000   0.4191
   3.000   1.2748   0.00889   0.00321  -0.2127  0.0027  0.0383  -1.6257   0.0000   0.4107
   3.500   1.3296   0.00914   0.00344  -0.2126  0.0022  0.0464  -1.7425   0.0000   0.4030
   4.000   1.3839   0.00939   0.00369  -0.2124  0.0026  0.0501  -1.8804   0.0000   0.3959
   4.500   1.4379   0.00966   0.00395  -0.2122  0.0020  0.0665  -2.0572   0.0000   0.3892
   5.000   1.4912   0.00995   0.00423  -0.2118  0.0015  0.0738  -2.2376   0.0000   0.3829
   5.500   1.5443   0.01026   0.00455  -0.2114  0.0013  0.1027  -2.4225   0.0000   0.3770
   6.000   1.5970   0.01057   0.00489  -0.2110  0.0013  0.1542  -2.6115   0.0000   0.3714
   7.000   1.6996   0.01129   0.00563  -0.2097  0.0012  0.2051  -2.9987   0.0000   0.3610
   7.500   1.7502   0.01167   0.00605  -0.2090  0.0012  0.2485  -3.1977   0.0000   0.3561
   8.000   1.7979   0.01213   0.00647  -0.2077  0.0012  0.2229  -3.3958   0.0000   0.3513
   8.500   1.8480   0.01253   0.00698  -0.2070  0.0012  0.3354  -3.6021   0.0000   0.3469
   9.000   1.8946   0.01302   0.00750  -0.2056  0.0012  0.3688  -3.8536   0.0000   0.3425
   9.500   1.9386   0.01357   0.00805  -0.2037  0.0011  0.3844  -4.1299   0.0000   0.3381
  10.000   1.9823   0.01411   0.00871  -0.2019  0.0011  0.4856  -4.6838   0.0000   0.3339
  10.500   2.0109   0.01478   0.00940  -0.1969  0.0011  0.4973  -5.1807   0.0000   0.3291
  11.000   2.0413   0.01556   0.01020  -0.1926  0.0011  0.4994  -5.7088   0.0000   0.3245
  11.500   2.0726   0.01646   0.01113  -0.1886  0.0011  0.5296  -6.2659   0.0000   0.3202
  12.000   2.1008   0.01751   0.01222  -0.1843  0.0010  0.5521  -6.8280   0.0000   0.3159
  12.500   2.1276   0.01874   0.01349  -0.1801  0.0010  0.5647  -7.4004   0.0000   0.3117
  13.000   2.1534   0.02016   0.01497  -0.1761  0.0010  0.6006  -7.9843   0.0000   0.3078
  13.500   2.1777   0.02180   0.01668  -0.1722  0.0009  0.6452  -8.5760   0.0000   0.3039
  14.000   2.1992   0.02369   0.01866  -0.1682  0.0009  0.6885  -9.1660   0.0000   0.3002
  14.500   2.2193   0.02588   0.02091  -0.1645  0.0009  0.7154  -9.7625   0.0000   0.2967
  15.000   2.2384   0.02838   0.02348  -0.1610  0.0009  0.7573  -10.3661   0.0000   0.2933
  15.500   2.2563   0.03122   0.02643  -0.1580  0.0008  0.8163  -10.9778   0.0000   0.2902
  16.000   2.2772   0.03440   0.02986  -0.1562  0.0008  1.0000  -11.6302   0.0000   0.2874
  16.500   2.2878   0.03805   0.03356  -0.1531  0.0008  1.0000  -12.2115   0.0000   0.2845
  17.000   2.2943   0.04215   0.03772  -0.1501  0.0008  1.0000  -12.7688   0.0000   0.2816
  17.500   2.2985   0.04688   0.04252  -0.1474  0.0007  1.0000  -13.3177   0.0000   0.2790
  18.000   2.3009   0.05209   0.04779  -0.1452  0.0006  1.0000  -13.8605   0.0000   0.2766
  19.500   2.2109   0.08122   0.07744  -0.1400  0.0015  1.0000  -14.4767   0.0000   0.2723


