XFLR5 v6.02 Beta

 Calculated polar for: WORTMANN FX 63-137

 1 1 Reynolds number fixed          Mach number fixed         

 xtrf =   1.000 (top)        1.000 (bottom)
 Mach =   0.000     Re =    58.750 e 6     Ncrit =   9.000

  alpha     CL        CD       CDp       CM    Top Xtr Bot Xtr   Cpmin    Chinge    XCp    
 ------- -------- --------- --------- -------- ------- ------- -------- --------- ---------
 -22.000  -1.2451   0.05078   0.04756  -0.1547  0.4341  0.0014  -27.8643   0.0000   0.0896
 -21.500  -1.2764   0.04112   0.03777  -0.1623  0.4291  0.0014  -28.0796   0.0000   0.0886
 -21.000  -1.2921   0.03380   0.03035  -0.1681  0.4228  0.0014  -27.9694   0.0000   0.0875
 -20.500  -1.2892   0.02901   0.02549  -0.1715  0.4193  0.0015  -27.5038   0.0000   0.0860
 -20.000  -1.2794   0.02493   0.02136  -0.1743  0.4151  0.0015  -26.9179   0.0000   0.0842
 -19.500  -1.2654   0.02131   0.01768  -0.1766  0.4104  0.0015  -26.2582   0.0000   0.0822
 -19.000  -1.2462   0.01842   0.01475  -0.1782  0.4052  0.0016  -25.5158   0.0000   0.0799
 -18.500  -1.2019   0.01599   0.01227  -0.1833  0.4020  0.0016  -24.4646   0.0000   0.0713
 -18.000  -1.1489   0.01431   0.01045  -0.1881  0.3437  0.0017  -23.3094   0.0000   0.0608
 -17.000  -1.0427   0.01258   0.00863  -0.1910  0.3088  0.0019  -20.9980   0.0000   0.0425
 -16.500  -0.9877   0.01189   0.00788  -0.1921  0.3015  0.0020  -19.8549   0.0000   0.0316
 -16.000  -0.9317   0.01126   0.00721  -0.1933  0.2945  0.0021  -18.7273   0.0000   0.0190
 -15.500  -0.8748   0.01068   0.00660  -0.1944  0.2901  0.0022  -17.6183   0.0000   0.0045
 -15.000  -0.8173   0.01016   0.00604  -0.1954  0.2782  0.0023  -16.5324   0.0000  -0.0122
 -14.500  -0.7605   0.00974   0.00553  -0.1962  0.2301  0.0025  -15.4834   0.0000  -0.0311
 -14.000  -0.7020   0.00929   0.00505  -0.1972  0.2221  0.0026  -14.4480   0.0000  -0.0541
 -13.500  -0.6432   0.00890   0.00463  -0.1982  0.2209  0.0027  -13.5233   0.0000  -0.0816
 -13.000  -0.5846   0.00855   0.00424  -0.1991  0.1998  0.0029  -12.6293   0.0000  -0.1145
 -12.500  -0.5256   0.00823   0.00386  -0.2000  0.1696  0.0031  -11.7589   0.0000  -0.1551
 -11.500  -0.4062   0.00761   0.00319  -0.2019  0.1691  0.0037  -10.0806   0.0000  -0.2746
 -11.000  -0.3464   0.00737   0.00293  -0.2028  0.1689  0.0039  -9.2807   0.0000  -0.3654
 -10.500  -0.2871   0.00720   0.00271  -0.2035  0.1435  0.0040  -8.5146   0.0000  -0.4923
 -10.000  -0.2275   0.00704   0.00251  -0.2043  0.1382  0.0040  -7.7747   0.0000  -0.6875
  -9.500  -0.1677   0.00688   0.00233  -0.2051  0.1329  0.0041  -7.0637   0.0000  -1.0226
  -9.000  -0.1078   0.00675   0.00217  -0.2058  0.1241  0.0041  -6.3824   0.0000  -1.7302
  -8.500  -0.0480   0.00662   0.00203  -0.2066  0.1238  0.0041  -5.7284   0.0000  -4.2050
  -8.000   0.0119   0.00652   0.00191  -0.2073  0.1235  0.0042  -5.1041   0.0000  18.2850
  -7.500   0.0717   0.00642   0.00180  -0.2081  0.1232  0.0042  -4.5095   0.0000   3.2385
  -6.500   0.1912   0.00628   0.00163  -0.2094  0.1227  0.0043  -3.6525   0.0000   1.3731
  -6.000   0.2502   0.00628   0.00157  -0.2100  0.1017  0.0043  -3.2783   0.0000   1.1086
  -5.500   0.3095   0.00625   0.00152  -0.2106  0.0988  0.0044  -2.9177   0.0000   0.9445
  -5.000   0.3689   0.00624   0.00149  -0.2112  0.0961  0.0044  -2.5723   0.0000   0.8332
  -4.500   0.4281   0.00623   0.00146  -0.2118  0.0919  0.0045  -2.2420   0.0000   0.7528
  -4.000   0.4873   0.00623   0.00145  -0.2123  0.0844  0.0045  -1.9277   0.0000   0.6920
  -3.500   0.5463   0.00624   0.00145  -0.2129  0.0842  0.0045  -1.6291   0.0000   0.6444
  -3.000   0.6053   0.00626   0.00146  -0.2134  0.0841  0.0046  -1.3463   0.0000   0.6060
  -2.500   0.6640   0.00629   0.00148  -0.2139  0.0839  0.0046  -1.0787   0.0000   0.5744
  -2.000   0.7212   0.00645   0.00157  -0.2141  0.0573  0.0050  -0.9614   0.0000   0.5482
  -1.500   0.7793   0.00654   0.00162  -0.2144  0.0479  0.0060  -1.0117   0.0000   0.5256
  -1.000   0.8372   0.00663   0.00169  -0.2148  0.0452  0.0070  -1.0639   0.0000   0.5062
  -0.500   0.8951   0.00672   0.00177  -0.2151  0.0428  0.0077  -1.1165   0.0000   0.4892
   0.000   0.9528   0.00681   0.00185  -0.2155  0.0406  0.0083  -1.1693   0.0000   0.4743
   0.500   1.0104   0.00691   0.00194  -0.2158  0.0384  0.0154  -1.2243   0.0000   0.4610
   1.000   1.0678   0.00702   0.00204  -0.2161  0.0414  0.0170  -1.2892   0.0000   0.4491
   1.500   1.1248   0.00714   0.00216  -0.2163  0.0404  0.0171  -1.3649   0.0000   0.4383
   2.500   1.2343   0.00774   0.00265  -0.2159  0.0017  0.0372  -1.5294   0.0000   0.4195
   3.500   1.3452   0.00816   0.00302  -0.2158  0.0013  0.0397  -1.7627   0.0000   0.4035
   4.000   1.4001   0.00839   0.00324  -0.2157  0.0013  0.0427  -1.9082   0.0000   0.3964
   4.500   1.4546   0.00863   0.00346  -0.2155  0.0013  0.0487  -2.0867   0.0000   0.3898
   6.000   1.6157   0.00944   0.00427  -0.2147  0.0012  0.1105  -2.6481   0.0000   0.3721
   6.500   1.6683   0.00975   0.00457  -0.2143  0.0012  0.1226  -2.8428   0.0000   0.3668
   7.000   1.7203   0.01007   0.00490  -0.2138  0.0012  0.1461  -3.0414   0.0000   0.3618
   7.500   1.7714   0.01042   0.00524  -0.2131  0.0012  0.1515  -3.2426   0.0000   0.3570
   8.000   1.8216   0.01080   0.00560  -0.2122  0.0012  0.1479  -3.4466   0.0000   0.3523
   8.500   1.8712   0.01119   0.00600  -0.2113  0.0012  0.1737  -3.6538   0.0000   0.3478
   9.500   1.9678   0.01204   0.00689  -0.2091  0.0012  0.2503  -4.2978   0.0000   0.3392
  10.000   2.0149   0.01250   0.00740  -0.2079  0.0011  0.3295  -4.8807   0.0000   0.3352
  11.000   2.1001   0.01360   0.00852  -0.2037  0.0011  0.3704  -6.0877   0.0000   0.3270
  11.500   2.1251   0.01425   0.00920  -0.1980  0.0011  0.3754  -6.6201   0.0000   0.3222
  12.000   2.1543   0.01503   0.00998  -0.1934  0.0010  0.3770  -7.2016   0.0000   0.3178
  12.500   2.1842   0.01592   0.01088  -0.1892  0.0010  0.3892  -7.8079   0.0000   0.3136
  13.000   2.2129   0.01694   0.01198  -0.1851  0.0010  0.4578  -8.4271   0.0000   0.3095
  13.500   2.2390   0.01817   0.01325  -0.1808  0.0009  0.4883  -9.0486   0.0000   0.3055
  15.000   2.2627   0.02611   0.02148  -0.1628  0.0015  0.5465  -10.5233   0.0000   0.2933
  15.500   2.2738   0.02914   0.02460  -0.1585  0.0019  0.5706  -11.1090   0.0000   0.2899
  16.000   2.2936   0.03174   0.02726  -0.1556  0.0024  0.6109  -11.7673   0.0000   0.2868
  16.500   2.3031   0.03532   0.03092  -0.1522  0.0027  0.6351  -12.3395   0.0000   0.2837
  17.000   2.3102   0.03922   0.03489  -0.1490  0.0031  0.6596  -12.9007   0.0000   0.2808
  17.500   2.3130   0.04387   0.03964  -0.1460  0.0037  0.6901  -13.4315   0.0000   0.2781
  18.500   2.3137   0.05486   0.05083  -0.1417  0.0042  0.7550  -14.4744   0.0000   0.2734
  19.000   2.3107   0.06129   0.05737  -0.1404  0.0044  0.8018  -14.9760   0.0000   0.2715
  19.500   2.3053   0.06824   0.06445  -0.1396  0.0045  0.8450  -15.4589   0.0000   0.2697


