xflr5 v6.59

 Calculated polar for: WORTMANN FX 63-137 AIRFOIL

 1 1 Reynolds number fixed          Mach number fixed         

 xtrf =   1.000 (top)        1.000 (bottom)
 Mach =   0.000     Re =     0.800 e 6     Ncrit =   9.000

  alpha     CL        CD       CDp       Cm    Top Xtr Bot Xtr   Cpmin    Chinge    XCp    
 ------- -------- --------- --------- -------- ------- ------- -------- --------- ---------
 -19.700   -0.4145   0.22641   0.22421   -0.0184   1.0000   0.0064   -1.4368   0.0000   0.1751   
 -19.600   -0.4116   0.22537   0.22318   -0.0189   1.0000   0.0065   -1.4328   0.0000   0.1735   
 -19.500   -0.4086   0.22433   0.22214   -0.0194   1.0000   0.0065   -1.4288   0.0000   0.1719   
 -19.400   -0.4056   0.22329   0.22110   -0.0199   1.0000   0.0066   -1.4251   0.0000   0.1703   
 -19.300   -0.4027   0.22224   0.22005   -0.0204   1.0000   0.0066   -1.4216   0.0000   0.1687   
 -19.200   -0.3997   0.22117   0.21899   -0.0209   1.0000   0.0067   -1.4184   0.0000   0.1671   
 -19.100   -0.3968   0.22008   0.21790   -0.0214   1.0000   0.0068   -1.4154   0.0000   0.1654   
 -19.000   -0.3940   0.21896   0.21678   -0.0219   1.0000   0.0069   -1.4127   0.0000   0.1638   
 -18.900   -0.3911   0.21780   0.21562   -0.0224   1.0000   0.0069   -1.4104   0.0000   0.1621   
 -18.800   -0.3883   0.21662   0.21445   -0.0229   1.0000   0.0070   -1.4083   0.0000   0.1605   
 -18.700   -0.3855   0.21544   0.21327   -0.0234   1.0000   0.0071   -1.4065   0.0000   0.1588   
 -18.600   -0.3828   0.21425   0.21208   -0.0239   1.0000   0.0072   -1.4050   0.0000   0.1571   
 -18.500   -0.3800   0.21306   0.21090   -0.0243   1.0000   0.0073   -1.4037   0.0000   0.1554   
 -18.400   -0.3772   0.21187   0.20971   -0.0248   1.0000   0.0073   -1.4027   0.0000   0.1537   
 -18.300   -0.3745   0.21067   0.20852   -0.0253   1.0000   0.0074   -1.4021   0.0000   0.1520   
 -18.200   -0.3718   0.20947   0.20732   -0.0257   1.0000   0.0075   -1.4018   0.0000   0.1503   
 -18.100   -0.3691   0.20827   0.20612   -0.0262   1.0000   0.0076   -1.4020   0.0000   0.1485   
 -18.000   -0.3664   0.20706   0.20491   -0.0266   1.0000   0.0078   -1.4026   0.0000   0.1468   
 -17.900   -0.3637   0.20585   0.20370   -0.0271   1.0000   0.0079   -1.4038   0.0000   0.1450   
 -17.800   -0.3611   0.20462   0.20248   -0.0275   1.0000   0.0080   -1.4057   0.0000   0.1432   
 -17.700   -0.3585   0.20339   0.20126   -0.0279   1.0000   0.0081   -1.4085   0.0000   0.1415   
 -17.600   -0.3559   0.20215   0.20002   -0.0284   1.0000   0.0083   -1.4125   0.0000   0.1397   
 -17.500   -0.3533   0.20090   0.19877   -0.0288   1.0000   0.0084   -1.4182   0.0000   0.1378   
 -17.400   -0.3507   0.19962   0.19749   -0.0292   1.0000   0.0086   -1.4267   0.0000   0.1360   
 -17.300   -0.3481   0.19831   0.19618   -0.0297   1.0000   0.0088   -1.4399   0.0000   0.1340   
 -17.200   -0.3454   0.19695   0.19483   -0.0301   1.0000   0.0091   -1.4629   0.0000   0.1319   
 -17.100   -0.3427   0.19562   0.19351   -0.0308   1.0000   0.0094   -1.4967   0.0000   0.1293   
 -17.000   -0.3402   0.19443   0.19232   -0.0314   1.0000   0.0095   -1.5218   0.0000   0.1267   
 -16.900   -0.3379   0.19327   0.19116   -0.0320   1.0000   0.0096   -1.5391   0.0000   0.1243   
 -16.800   -0.3354   0.19213   0.19003   -0.0325   1.0000   0.0097   -1.5476   0.0000   0.1222   
 -16.700   -0.3330   0.19098   0.18888   -0.0329   1.0000   0.0097   -1.5528   0.0000   0.1201   
 -16.600   -0.3305   0.18981   0.18772   -0.0333   1.0000   0.0097   -1.5578   0.0000   0.1181   
 -16.500   -0.3282   0.18863   0.18654   -0.0337   1.0000   0.0098   -1.5631   0.0000   0.1161   
 -16.400   -0.3259   0.18744   0.18536   -0.0341   1.0000   0.0098   -1.5685   0.0000   0.1142   
 -16.300   -0.3236   0.18624   0.18416   -0.0345   1.0000   0.0098   -1.5746   0.0000   0.1122   
 -16.200   -0.3214   0.18503   0.18296   -0.0349   1.0000   0.0098   -1.5809   0.0000   0.1103   
 -16.100   -0.3192   0.18382   0.18175   -0.0353   1.0000   0.0098   -1.5875   0.0000   0.1083   
 -16.000   -0.3170   0.18260   0.18053   -0.0356   1.0000   0.0098   -1.5942   0.0000   0.1064   
 -15.900   -0.3149   0.18137   0.17931   -0.0360   1.0000   0.0099   -1.6013   0.0000   0.1046   
 -15.800   -0.3128   0.18013   0.17808   -0.0363   1.0000   0.0099   -1.6092   0.0000   0.1027   
 -15.700   -0.3107   0.17890   0.17685   -0.0367   1.0000   0.0099   -1.6174   0.0000   0.1009   
 -15.600   -0.3087   0.17766   0.17561   -0.0370   1.0000   0.0099   -1.6259   0.0000   0.0991   
 -15.500   -0.3067   0.17641   0.17437   -0.0373   1.0000   0.0099   -1.6346   0.0000   0.0973   
 -15.400   -0.3048   0.17515   0.17310   -0.0376   1.0000   0.0099   -1.6428   0.0000   0.0955   
 -15.300   -0.3029   0.17390   0.17185   -0.0379   1.0000   0.0099   -1.6522   0.0000   0.0938   
 -15.200   -0.3010   0.17264   0.17060   -0.0382   1.0000   0.0099   -1.6618   0.0000   0.0920   
 -15.100   -0.2992   0.17138   0.16935   -0.0385   1.0000   0.0099   -1.6718   0.0000   0.0903   
 -15.000   -0.2974   0.17012   0.16809   -0.0387   1.0000   0.0099   -1.6822   0.0000   0.0887   
 -14.900   -0.2957   0.16886   0.16683   -0.0390   1.0000   0.0099   -1.6930   0.0000   0.0870   
 -14.800   -0.2940   0.16760   0.16557   -0.0393   1.0000   0.0099   -1.7042   0.0000   0.0855   
 -14.700   -0.2924   0.16633   0.16431   -0.0395   1.0000   0.0099   -1.7158   0.0000   0.0839   
 -14.600   -0.2909   0.16506   0.16305   -0.0397   1.0000   0.0100   -1.7279   0.0000   0.0824   
 -14.500   -0.2944   0.16152   0.15953   -0.0394   1.0000   0.0107   -1.7942   0.0000   0.0855   
 -14.400   -0.2920   0.16063   0.15864   -0.0394   1.0000   0.0108   -1.7668   0.0000   0.0843   
 -14.300   -0.2897   0.15975   0.15776   -0.0395   1.0000   0.0109   -1.7410   0.0000   0.0832   
 -14.200   -0.2875   0.15886   0.15689   -0.0395   1.0000   0.0110   -1.7168   0.0000   0.0820   
 -14.100   -0.2853   0.15798   0.15601   -0.0396   1.0000   0.0111   -1.6940   0.0000   0.0809   
 -14.000   -0.2833   0.15709   0.15513   -0.0396   1.0000   0.0112   -1.6728   0.0000   0.0799   
 -13.900   -0.2814   0.15621   0.15425   -0.0396   1.0000   0.0113   -1.6530   0.0000   0.0789   
 -13.800   -0.2795   0.15532   0.15337   -0.0396   1.0000   0.0114   -1.6347   0.0000   0.0780   
 -13.700   -0.2778   0.15443   0.15249   -0.0396   1.0000   0.0115   -1.6178   0.0000   0.0772   
 -13.600   -0.2762   0.15353   0.15160   -0.0396   1.0000   0.0117   -1.6024   0.0000   0.0766   
 -13.300   -0.2603   0.14940   0.14747   -0.0431   0.9993   0.0123   -1.5479   0.0000   0.0534   
 -13.200   -0.2543   0.14789   0.14596   -0.0445   0.9990   0.0126   -1.5331   0.0000   0.0434   
 -13.100   -0.2483   0.14635   0.14441   -0.0459   0.9987   0.0130   -1.5207   0.0000   0.0329   
 -13.000   -0.2423   0.14477   0.14283   -0.0473   0.9983   0.0134   -1.5109   0.0000   0.0217   
 -12.900   -0.2362   0.14316   0.14122   -0.0488   0.9979   0.0138   -1.5038   0.0000   0.0098   
 -12.800   -0.2301   0.14152   0.13959   -0.0503   0.9975   0.0144   -1.5000   0.0000   -0.0030   
 -12.700   -0.2237   0.13987   0.13793   -0.0519   0.9970   0.0152   -1.5011   0.0000   -0.0173   
 -12.600   -0.2166   0.13825   0.13631   -0.0538   0.9966   0.0162   -1.5173   0.0000   -0.0347   
 -12.500   -0.2104   0.13653   0.13459   -0.0556   0.9962   0.0164   -1.5354   0.0000   -0.0515   
 -12.400   -0.2047   0.13474   0.13280   -0.0573   0.9958   0.0166   -1.5538   0.0000   -0.0681   
 -12.300   -0.1995   0.13293   0.13099   -0.0588   0.9951   0.0166   -1.5734   0.0000   -0.0839   
 -12.200   -0.1945   0.13109   0.12914   -0.0603   0.9944   0.0166   -1.5951   0.0000   -0.0999   
 -12.100   -0.1896   0.12920   0.12726   -0.0618   0.9937   0.0167   -1.6198   0.0000   -0.1166   
 -12.000   -0.1848   0.12728   0.12533   -0.0632   0.9930   0.0166   -1.6486   0.0000   -0.1338   
 -11.900   -0.1803   0.12526   0.12332   -0.0647   0.9924   0.0166   -1.6839   0.0000   -0.1511   
 -11.800   -0.5610   0.03146   0.02858   -0.1334   0.9628   0.0086   -9.4815   0.0000   -0.0087   
 -11.700   -0.5578   0.02889   0.02588   -0.1379   0.9551   0.0086   -9.4804   0.0000   -0.0179   
 -11.600   -0.5449   0.02618   0.02300   -0.1445   0.9514   0.0086   -9.4171   0.0000   -0.0360   
 -11.500   -0.5268   0.02382   0.02047   -0.1513   0.9493   0.0087   -9.3050   0.0000   -0.0583   
 -11.400   -0.5104   0.02214   0.01864   -0.1561   0.9455   0.0087   -9.1799   0.0000   -0.0773   
 -11.300   -0.4941   0.02090   0.01724   -0.1598   0.9420   0.0087   -9.0398   0.0000   -0.0952   
 -11.200   -0.4768   0.01985   0.01607   -0.1630   0.9395   0.0087   -8.8860   0.0000   -0.1140   
 -11.100   -0.4586   0.01895   0.01505   -0.1660   0.9375   0.0087   -8.7207   0.0000   -0.1348   
 -11.000   -0.4395   0.01816   0.01414   -0.1690   0.9358   0.0087   -8.5469   0.0000   -0.1578   
 -10.900   -0.4197   0.01745   0.01333   -0.1719   0.9343   0.0088   -8.3661   0.0000   -0.1836   
 -10.800   -0.4007   0.01685   0.01262   -0.1744   0.9321   0.0088   -8.1883   0.0000   -0.2100   
 -10.700   -0.3842   0.01634   0.01203   -0.1763   0.9281   0.0088   -8.0240   0.0000   -0.2343   
 -10.600   -0.3665   0.01586   0.01147   -0.1783   0.9244   0.0088   -7.8517   0.0000   -0.2629   
 -10.500   -0.3482   0.01543   0.01096   -0.1804   0.9208   0.0089   -7.6749   0.0000   -0.2954   
 -10.400   -0.3296   0.01504   0.01050   -0.1824   0.9173   0.0089   -7.4954   0.0000   -0.3320   
 -10.300   -0.3137   0.01471   0.01011   -0.1839   0.9125   0.0090   -7.3317   0.0000   -0.3656   
 -10.200   -0.2991   0.01442   0.00978   -0.1850   0.9068   0.0091   -7.1754   0.0000   -0.3991   
 -10.100   -0.2837   0.01416   0.00948   -0.1862   0.9013   0.0092   -7.0164   0.0000   -0.4380   
 -10.000   -0.2685   0.01394   0.00923   -0.1874   0.8962   0.0093   -6.8730   0.0000   -0.4810   
 -9.900   -0.2561   0.01378   0.00906   -0.1879   0.8905   0.0094   -6.7430   0.0000   -0.5177   
 -9.800   -0.2434   0.01366   0.00893   -0.1884   0.8849   0.0095   -6.6086   0.0000   -0.5594   
 -9.700   -0.2304   0.01358   0.00885   -0.1888   0.8796   0.0096   -6.4713   0.0000   -0.6063   
 -9.600   -0.2181   0.01355   0.00881   -0.1892   0.8748   0.0097   -6.3358   0.0000   -0.6559   
 -9.500   -0.2070   0.01354   0.00881   -0.1892   0.8700   0.0097   -6.2070   0.0000   -0.7035   
 -9.400   -0.1957   0.01355   0.00883   -0.1892   0.8650   0.0098   -6.0773   0.0000   -0.7581   
 -9.300   -0.1841   0.01354   0.00877   -0.1894   0.8602   0.0098   -5.9532   0.0000   -0.8217   
 -9.200   -0.1725   0.01358   0.00881   -0.1895   0.8556   0.0099   -5.8234   0.0000   -0.8940   
 -9.100   -0.1610   0.01355   0.00877   -0.1896   0.8517   0.0100   -5.7019   0.0000   -0.9758   
 -9.000   -0.1491   0.01319   0.00832   -0.1901   0.8480   0.0102   -5.6117   0.0000   -1.0764   
 -8.900   -0.1371   0.01289   0.00793   -0.1906   0.8441   0.0105   -5.5175   0.0000   -1.1949   
 -8.800   -0.1251   0.01262   0.00759   -0.1911   0.8400   0.0107   -5.4208   0.0000   -1.3361   
 -8.700   -0.1131   0.01239   0.00727   -0.1915   0.8358   0.0108   -5.3226   0.0000   -1.5074   
 -8.600   -0.1011   0.01218   0.00698   -0.1919   0.8315   0.0109   -5.2238   0.0000   -1.7196   
 -8.500   -0.0891   0.01197   0.00670   -0.1923   0.8279   0.0111   -5.1252   0.0000   -1.9878   
 -8.400   -0.0772   0.01177   0.00644   -0.1926   0.8243   0.0111   -5.0268   0.0000   -2.3356   
 -8.300   -0.0653   0.01158   0.00619   -0.1930   0.8202   0.0112   -4.9283   0.0000   -2.8113   
 -8.200   -0.0534   0.01141   0.00595   -0.1933   0.8158   0.0112   -4.8300   0.0000   -3.4968   
 -8.100   -0.0416   0.01126   0.00573   -0.1936   0.8111   0.0112   -4.7320   0.0000   -4.5657   
 -8.000   -0.0299   0.01113   0.00552   -0.1938   0.8062   0.0113   -4.6347   0.0000   -6.4568   
 -7.900   -0.0180   0.01099   0.00533   -0.1940   0.8022   0.0113   -4.5368   0.0000   -10.8873   
 -7.800   -0.0061   0.01086   0.00515   -0.1943   0.7984   0.0114   -4.4392   0.0000   -32.5779   
 -7.700   0.0057   0.01074   0.00497   -0.1945   0.7941   0.0114   -4.3421   0.0000   35.4783   
 -7.600   0.0174   0.01063   0.00481   -0.1947   0.7896   0.0115   -4.2458   0.0000   11.7866   
 -7.500   0.0290   0.01055   0.00466   -0.1949   0.7851   0.0116   -4.1505   0.0000   7.1777   
 -7.400   0.0406   0.01047   0.00452   -0.1950   0.7803   0.0116   -4.0557   0.0000   5.2063   
 -7.300   0.0524   0.01038   0.00439   -0.1952   0.7766   0.0117   -3.9602   0.0000   4.0860   
 -7.200   0.0644   0.01028   0.00427   -0.1954   0.7738   0.0118   -3.8646   0.0000   3.3742   
 -7.100   0.0764   0.01019   0.00415   -0.1956   0.7706   0.0119   -3.7697   0.0000   2.8864   
 -7.000   0.0883   0.01011   0.00404   -0.1958   0.7671   0.0119   -3.6955   0.0000   2.5318   
 -6.900   0.1002   0.01004   0.00391   -0.1960   0.7637   0.0120   -3.6283   0.0000   2.2622   
 -6.800   0.1119   0.00997   0.00381   -0.1962   0.7601   0.0121   -3.5621   0.0000   2.0512   
 -6.700   0.1236   0.00992   0.00371   -0.1963   0.7562   0.0122   -3.4964   0.0000   1.8819   
 -6.600   0.1351   0.00988   0.00362   -0.1964   0.7521   0.0123   -3.4311   0.0000   1.7431   
 -6.500   0.1468   0.00982   0.00354   -0.1965   0.7486   0.0124   -3.3650   0.0000   1.6239   
 -6.400   0.1588   0.00976   0.00346   -0.1967   0.7457   0.0125   -3.2982   0.0000   1.5211   
 -6.300   0.1706   0.00970   0.00338   -0.1969   0.7423   0.0127   -3.2318   0.0000   1.4332   
 -6.200   0.1824   0.00965   0.00331   -0.1970   0.7387   0.0128   -3.1657   0.0000   1.3571   
 -6.100   0.1941   0.00961   0.00324   -0.1971   0.7350   0.0129   -3.0998   0.0000   1.2907   
 -6.000   0.2056   0.00957   0.00317   -0.1972   0.7313   0.0130   -3.0343   0.0000   1.2321   
 -5.900   0.2171   0.00955   0.00311   -0.1973   0.7275   0.0132   -2.9691   0.0000   1.1802   
 -5.800   0.2286   0.00953   0.00306   -0.1974   0.7236   0.0134   -2.9037   0.0000   1.1335   
 -5.700   0.2403   0.00949   0.00301   -0.1975   0.7205   0.0135   -2.8371   0.0000   1.0905   
 -5.600   0.2523   0.00945   0.00296   -0.1977   0.7186   0.0137   -2.7692   0.0000   1.0509   
 -5.500   0.2643   0.00940   0.00292   -0.1979   0.7164   0.0139   -2.7005   0.0000   1.0149   
 -5.400   0.2762   0.00937   0.00289   -0.1980   0.7140   0.0142   -2.6307   0.0000   0.9822   
 -5.300   0.2880   0.00934   0.00286   -0.1982   0.7115   0.0144   -2.5592   0.0000   0.9524   
 -5.200   0.2997   0.00933   0.00285   -0.1983   0.7088   0.0147   -2.4858   0.0000   0.9251   
 -5.100   0.3112   0.00933   0.00285   -0.1983   0.7058   0.0151   -2.4098   0.0000   0.9000   
 -5.000   0.3225   0.00934   0.00287   -0.1984   0.7027   0.0154   -2.3303   0.0000   0.8770   
 -4.900   0.3335   0.00937   0.00292   -0.1983   0.6994   0.0158   -2.2468   0.0000   0.8559   
 -4.800   0.3443   0.00942   0.00300   -0.1982   0.6959   0.0162   -2.1589   0.0000   0.8364   
 -4.700   0.3547   0.00950   0.00311   -0.1980   0.6923   0.0165   -2.0669   0.0000   0.8184   
 -4.600   0.3649   0.00961   0.00329   -0.1978   0.6897   0.0168   -1.9689   0.0000   0.8016   
 -4.500   0.3711   0.01014   0.00400   -0.1964   0.6874   0.0174   -1.8217   0.0000   0.7883   
 -4.400   0.3855   0.00983   0.00363   -0.1973   0.6849   0.0180   -1.7965   0.0000   0.7704   
 -4.300   0.3990   0.00963   0.00335   -0.1979   0.6822   0.0188   -1.7624   0.0000   0.7542   
 -4.200   0.4116   0.00953   0.00321   -0.1983   0.6795   0.0193   -1.7190   0.0000   0.7394   
 -4.100   0.4239   0.00945   0.00310   -0.1986   0.6767   0.0197   -1.6733   0.0000   0.7257   
 -4.000   0.4361   0.00939   0.00301   -0.1988   0.6738   0.0201   -1.6266   0.0000   0.7128   
 -3.900   0.4481   0.00933   0.00293   -0.1990   0.6708   0.0205   -1.5794   0.0000   0.7006   
 -3.800   0.4599   0.00929   0.00286   -0.1992   0.6677   0.0208   -1.5322   0.0000   0.6892   
 -3.700   0.4718   0.00926   0.00279   -0.1994   0.6644   0.0211   -1.4850   0.0000   0.6783   
 -3.600   0.4837   0.00922   0.00272   -0.1995   0.6612   0.0214   -1.4379   0.0000   0.6679   
 -3.500   0.4960   0.00916   0.00266   -0.1998   0.6595   0.0216   -1.3901   0.0000   0.6579   
 -3.400   0.5083   0.00911   0.00260   -0.2001   0.6578   0.0218   -1.3426   0.0000   0.6483   
 -3.300   0.5206   0.00906   0.00254   -0.2003   0.6557   0.0220   -1.2955   0.0000   0.6392   
 -3.200   0.5329   0.00901   0.00248   -0.2005   0.6532   0.0223   -1.2485   0.0000   0.6305   
 -3.100   0.5450   0.00897   0.00244   -0.2008   0.6502   0.0228   -1.2001   0.0000   0.6222   
 -3.000   0.5571   0.00893   0.00240   -0.2010   0.6467   0.0236   -1.1505   0.0000   0.6144   
 -2.900   0.5690   0.00890   0.00236   -0.2012   0.6426   0.0243   -1.1009   0.0000   0.6069   
 -2.800   0.5807   0.00888   0.00232   -0.2013   0.6382   0.0249   -1.0531   0.0000   0.5997   
 -2.700   0.5923   0.00887   0.00228   -0.2014   0.6336   0.0253   -1.0080   0.0000   0.5929   
 -2.600   0.6038   0.00887   0.00224   -0.2015   0.6291   0.0255   -0.9651   0.0000   0.5863   
 -2.500   0.6158   0.00884   0.00219   -0.2016   0.6261   0.0256   -0.9230   0.0000   0.5799   
 -2.400   0.6278   0.00882   0.00214   -0.2018   0.6229   0.0255   -0.8876   0.0000   0.5736   
 -2.300   0.6394   0.00883   0.00207   -0.2018   0.6195   0.0244   -0.8961   0.0000   0.5676   
 -2.200   0.6512   0.00882   0.00204   -0.2019   0.6159   0.0249   -0.9048   0.0000   0.5619   
 -2.100   0.6628   0.00881   0.00202   -0.2020   0.6121   0.0253   -0.9134   0.0000   0.5564   
 -2.000   0.6743   0.00882   0.00199   -0.2021   0.6081   0.0255   -0.9219   0.0000   0.5511   
 -1.900   0.6855   0.00884   0.00197   -0.2021   0.6038   0.0254   -0.9303   0.0000   0.5460   
 -1.800   0.6967   0.00887   0.00195   -0.2021   0.5994   0.0254   -0.9386   0.0000   0.5411   
 -1.700   0.7084   0.00887   0.00192   -0.2022   0.5964   0.0254   -0.9473   0.0000   0.5362   
 -1.600   0.7203   0.00886   0.00190   -0.2023   0.5942   0.0254   -0.9568   0.0000   0.5315   
 -1.500   0.7322   0.00885   0.00188   -0.2025   0.5914   0.0255   -0.9671   0.0000   0.5270   
 -1.400   0.7440   0.00884   0.00186   -0.2026   0.5876   0.0255   -0.9774   0.0000   0.5226   
 -1.300   0.7556   0.00885   0.00184   -0.2027   0.5827   0.0255   -0.9875   0.0000   0.5184   
 -1.200   0.7669   0.00887   0.00183   -0.2027   0.5765   0.0256   -0.9975   0.0000   0.5143   
 -0.900   0.8001   0.00899   0.00183   -0.2026   0.5595   0.0259   -1.0272   0.0000   0.5027   
 -0.800   0.8114   0.00901   0.00183   -0.2027   0.5551   0.0260   -1.0372   0.0000   0.4991   
 -0.700   0.8226   0.00904   0.00183   -0.2027   0.5507   0.0260   -1.0472   0.0000   0.4955   
 -0.600   0.8337   0.00908   0.00185   -0.2027   0.5461   0.0261   -1.0572   0.0000   0.4921   
 -0.500   0.8447   0.00913   0.00186   -0.2026   0.5413   0.0262   -1.0671   0.0000   0.4887   
 -0.400   0.8557   0.00917   0.00189   -0.2026   0.5363   0.0263   -1.0769   0.0000   0.4854   
 -0.300   0.8670   0.00920   0.00191   -0.2026   0.5321   0.0264   -1.0870   0.0000   0.4823   
 -0.200   0.8786   0.00921   0.00194   -0.2027   0.5291   0.0266   -1.0973   0.0000   0.4791   
 -0.100   0.8900   0.00923   0.00197   -0.2028   0.5241   0.0268   -1.1075   0.0000   0.4761   
 0.000   0.9011   0.00928   0.00200   -0.2028   0.5145   0.0336   -1.1175   0.0000   0.4731   
 0.200   0.9212   0.00949   0.00209   -0.2024   0.4920   0.0348   -1.1363   0.0000   0.4675   
 0.300   0.9315   0.00959   0.00214   -0.2022   0.4826   0.0357   -1.1459   0.0000   0.4647   
 0.400   0.9413   0.00973   0.00221   -0.2020   0.4709   0.0369   -1.1551   0.0000   0.4621   
 0.500   0.9521   0.00979   0.00225   -0.2019   0.4630   0.0380   -1.1650   0.0000   0.4594   
 0.600   0.9624   0.00989   0.00230   -0.2018   0.4480   0.0397   -1.1746   0.0000   0.4569   
 0.700   0.9712   0.01010   0.00240   -0.2014   0.4291   0.0429   -1.1842   0.0000   0.4544   
 0.800   0.9812   0.01022   0.00246   -0.2012   0.4191   0.0475   -1.1954   0.0000   0.4520   
 0.900   0.9917   0.01032   0.00256   -0.2011   0.4110   0.0527   -1.2069   0.0000   0.4496   
 1.000   1.0027   0.01038   0.00262   -0.2011   0.4050   0.0709   -1.2187   0.0000   0.4472   
 1.100   1.0140   0.01041   0.00267   -0.2012   0.4011   0.0789   -1.2308   0.0000   0.4449   
 1.200   1.0259   0.01041   0.00270   -0.2014   0.3983   0.0988   -1.2433   0.0000   0.4427   
 1.300   1.0370   0.01045   0.00274   -0.2014   0.3938   0.1036   -1.2559   0.0000   0.4404   
 1.400   1.0480   0.01051   0.00280   -0.2014   0.3843   0.1183   -1.2702   0.0000   0.4383   
 1.500   1.0581   0.01065   0.00291   -0.2013   0.3701   0.1441   -1.2837   0.0000   0.4362   
 1.600   1.0692   0.01071   0.00298   -0.2014   0.3636   0.1655   -1.2981   0.0000   0.4342   
 1.700   1.0807   0.01075   0.00305   -0.2016   0.3573   0.2013   -1.3127   0.0000   0.4323   
 1.800   1.0950   0.01066   0.00315   -0.2027   0.3502   0.3035   -1.3294   0.0000   0.4306   
 1.900   1.1091   0.01058   0.00329   -0.2036   0.3426   0.4073   -1.3461   0.0000   0.4290   
 2.000   1.1214   0.01057   0.00340   -0.2040   0.3382   0.4599   -1.3616   0.0000   0.4272   
 2.100   1.1331   0.01059   0.00349   -0.2041   0.3356   0.4875   -1.3766   0.0000   0.4253   
 2.200   1.1439   0.01065   0.00355   -0.2041   0.3313   0.4965   -1.3911   0.0000   0.4234   
 2.300   1.1544   0.01073   0.00365   -0.2040   0.3240   0.5037   -1.4053   0.0000   0.4215   
 2.400   1.1627   0.01100   0.00382   -0.2035   0.3050   0.5093   -1.4177   0.0000   0.4198   
 2.500   1.1725   0.01114   0.00392   -0.2033   0.2976   0.5148   -1.4334   0.0000   0.4180   
 2.600   1.1821   0.01129   0.00403   -0.2031   0.2899   0.5198   -1.4498   0.0000   0.4162   
 2.700   1.1918   0.01144   0.00414   -0.2028   0.2821   0.5244   -1.4663   0.0000   0.4145   
 2.800   1.2022   0.01152   0.00422   -0.2027   0.2776   0.5285   -1.4835   0.0000   0.4127   
 2.900   1.2128   0.01159   0.00428   -0.2026   0.2745   0.5318   -1.5014   0.0000   0.4110   
 3.000   1.2231   0.01168   0.00436   -0.2025   0.2680   0.5366   -1.5225   0.0000   0.4094   
 3.100   1.2313   0.01194   0.00454   -0.2020   0.2493   0.5423   -1.5414   0.0000   0.4078   
 3.200   1.2408   0.01210   0.00467   -0.2017   0.2431   0.5482   -1.5617   0.0000   0.4061   
 3.300   1.2502   0.01225   0.00479   -0.2014   0.2371   0.5543   -1.5821   0.0000   0.4045   
 3.400   1.2595   0.01242   0.00491   -0.2011   0.2305   0.5606   -1.6023   0.0000   0.4030   
 3.500   1.2690   0.01256   0.00503   -0.2009   0.2239   0.5661   -1.6228   0.0000   0.4014   
 3.600   1.2796   0.01262   0.00512   -0.2008   0.2210   0.5767   -1.6446   0.0000   0.3999   
 3.700   1.2901   0.01269   0.00522   -0.2007   0.2185   0.5861   -1.6663   0.0000   0.3984   
 3.800   1.3001   0.01279   0.00532   -0.2005   0.2143   0.5938   -1.6895   0.0000   0.3969   
 3.900   1.3086   0.01300   0.00548   -0.2000   0.2005   0.5995   -1.7191   0.0000   0.3954   
 4.000   1.3170   0.01322   0.00569   -0.1996   0.1919   0.6060   -1.7486   0.0000   0.3940   
 4.100   1.3262   0.01338   0.00583   -0.1993   0.1872   0.6139   -1.7795   0.0000   0.3925   
 4.200   1.3351   0.01355   0.00598   -0.1989   0.1823   0.6203   -1.8102   0.0000   0.3911   
 4.300   1.3441   0.01371   0.00610   -0.1985   0.1771   0.6251   -1.8412   0.0000   0.3897   
 4.400   1.3534   0.01385   0.00622   -0.1982   0.1719   0.6283   -1.8727   0.0000   0.3883   
 4.500   1.3634   0.01393   0.00631   -0.1980   0.1696   0.6329   -1.9056   0.0000   0.3869   
 4.600   1.3736   0.01401   0.00641   -0.1979   0.1680   0.6384   -1.9388   0.0000   0.3856   
 4.700   1.3835   0.01410   0.00652   -0.1977   0.1657   0.6432   -1.9718   0.0000   0.3842   
 4.800   1.3928   0.01422   0.00665   -0.1974   0.1604   0.6476   -2.0041   0.0000   0.3829   
 4.900   1.3988   0.01458   0.00691   -0.1965   0.1439   0.6513   -2.0309   0.0000   0.3815   
 5.000   1.4062   0.01484   0.00711   -0.1959   0.1375   0.6548   -2.0600   0.0000   0.3802   
 5.100   1.4134   0.01510   0.00730   -0.1952   0.1291   0.6578   -2.0890   0.0000   0.3789   
 5.200   1.4221   0.01525   0.00744   -0.1948   0.1232   0.6603   -2.1206   0.0000   0.3776   
 5.300   1.4311   0.01539   0.00758   -0.1945   0.1190   0.6643   -2.1530   0.0000   0.3763   
 5.400   1.4363   0.01577   0.00790   -0.1935   0.1021   0.6681   -2.1790   0.0000   0.3750   
 5.500   1.4427   0.01606   0.00812   -0.1927   0.0968   0.6718   -2.2072   0.0000   0.3737   
 5.600   1.4495   0.01631   0.00833   -0.1920   0.0907   0.6755   -2.2360   0.0000   0.3724   
 5.700   1.4570   0.01649   0.00851   -0.1913   0.0854   0.6793   -2.2660   0.0000   0.3712   
 5.800   1.4651   0.01661   0.00865   -0.1908   0.0837   0.6831   -2.2976   0.0000   0.3699   
 5.900   1.4731   0.01674   0.00878   -0.1902   0.0825   0.6866   -2.3290   0.0000   0.3687   
 6.000   1.4810   0.01687   0.00892   -0.1897   0.0813   0.6899   -2.3604   0.0000   0.3674   
 6.100   1.4890   0.01700   0.00906   -0.1891   0.0796   0.6939   -2.3920   0.0000   0.3662   
 6.200   1.4967   0.01715   0.00923   -0.1886   0.0764   0.6989   -2.4233   0.0000   0.3650   
 6.300   1.4999   0.01755   0.00959   -0.1872   0.0651   0.7035   -2.4477   0.0000   0.3637   
 6.400   1.5060   0.01779   0.00981   -0.1864   0.0631   0.7083   -2.4764   0.0000   0.3625   
 6.500   1.5121   0.01803   0.01004   -0.1855   0.0610   0.7130   -2.5052   0.0000   0.3613   
 6.600   1.5185   0.01825   0.01025   -0.1847   0.0586   0.7176   -2.5344   0.0000   0.3601   
 6.800   1.5325   0.01864   0.01066   -0.1834   0.0545   0.7284   -2.5948   0.0000   0.3578   
 6.900   1.5396   0.01882   0.01086   -0.1827   0.0530   0.7347   -2.6251   0.0000   0.3566   
 7.000   1.5467   0.01901   0.01106   -0.1821   0.0517   0.7413   -2.6556   0.0000   0.3555   
 7.100   1.5541   0.01918   0.01126   -0.1815   0.0515   0.7476   -2.6896   0.0000   0.3544   
 7.200   1.5615   0.01935   0.01146   -0.1809   0.0511   0.7543   -2.7235   0.0000   0.3533   
 7.300   1.5688   0.01953   0.01168   -0.1803   0.0507   0.7619   -2.7573   0.0000   0.3522   
 7.400   1.5759   0.01972   0.01190   -0.1797   0.0502   0.7697   -2.7905   0.0000   0.3511   
 7.500   1.5827   0.01992   0.01212   -0.1791   0.0496   0.7773   -2.8233   0.0000   0.3500   
 7.600   1.5896   0.02012   0.01236   -0.1784   0.0489   0.7859   -2.8561   0.0000   0.3490   
 7.700   1.5963   0.02034   0.01260   -0.1778   0.0482   0.7953   -2.8888   0.0000   0.3479   
 7.800   1.6028   0.02057   0.01285   -0.1771   0.0473   0.8044   -2.9213   0.0000   0.3469   
 7.900   1.6090   0.02080   0.01312   -0.1764   0.0462   0.8147   -2.9534   0.0000   0.3458   
 8.000   1.6148   0.02106   0.01341   -0.1756   0.0451   0.8262   -2.9851   0.0000   0.3448   
 8.100   1.6203   0.02133   0.01371   -0.1747   0.0439   0.8393   -3.0164   0.0000   0.3437   
 8.300   1.6294   0.02189   0.01435   -0.1728   0.0412   0.8822   -3.0757   0.0000   0.3416   
 8.400   1.6276   0.02202   0.01457   -0.1705   0.0402   1.0000   -3.0926   0.0000   0.3401   
 8.500   1.6331   0.02235   0.01490   -0.1697   0.0387   1.0000   -3.1234   0.0000   0.3391   
 8.600   1.6391   0.02265   0.01520   -0.1691   0.0380   1.0000   -3.1566   0.0000   0.3382   
 8.700   1.6453   0.02294   0.01549   -0.1685   0.0375   1.0000   -3.1910   0.0000   0.3372   
 8.800   1.6513   0.02324   0.01579   -0.1678   0.0368   1.0000   -3.2254   0.0000   0.3363   
 8.900   1.6581   0.02350   0.01612   -0.1673   0.0378   1.0000   -3.2535   0.0000   0.3353   
 9.000   1.6641   0.02381   0.01644   -0.1667   0.0374   1.0000   -3.2871   0.0000   0.3344   
 9.100   1.6698   0.02414   0.01677   -0.1660   0.0368   1.0000   -3.3211   0.0000   0.3335   
 9.200   1.6753   0.02449   0.01712   -0.1654   0.0358   1.0000   -3.3555   0.0000   0.3326   
 9.300   1.6803   0.02488   0.01750   -0.1646   0.0339   1.0000   -3.3906   0.0000   0.3317   
 9.400   1.6803   0.02563   0.01819   -0.1633   0.0271   1.0000   -3.4265   0.0000   0.3307   
 9.500   1.6800   0.02642   0.01892   -0.1621   0.0226   1.0000   -3.4455   0.0000   0.3298   
 9.600   1.6806   0.02714   0.01960   -0.1609   0.0177   1.0000   -3.4419   0.0000   0.3289   
 9.700   1.6846   0.02762   0.02009   -0.1601   0.0158   1.0000   -3.4665   0.0000   0.3280   
 9.900   1.6787   0.02974   0.02220   -0.1572   0.0042   1.0000   -3.5030   0.0000   0.3262   
 10.000   1.6814   0.03037   0.02285   -0.1563   0.0039   1.0000   -3.5308   0.0000   0.3254   
 10.100   1.6855   0.03091   0.02339   -0.1557   0.0034   1.0000   -3.5731   0.0000   0.3245   
 10.200   1.6899   0.03142   0.02392   -0.1551   0.0030   1.0000   -3.6034   0.0000   0.3237   
 10.300   1.6937   0.03199   0.02451   -0.1544   0.0028   1.0000   -3.6323   0.0000   0.3229   
 10.400   1.6975   0.03256   0.02511   -0.1538   0.0026   1.0000   -3.6633   0.0000   0.3222   
 10.500   1.7015   0.03313   0.02570   -0.1532   0.0025   1.0000   -3.6962   0.0000   0.3214   
 10.600   1.7056   0.03369   0.02629   -0.1526   0.0025   1.0000   -3.7305   0.0000   0.3206   
 10.700   1.7094   0.03429   0.02691   -0.1520   0.0024   1.0000   -3.7646   0.0000   0.3199   
 10.800   1.7130   0.03491   0.02755   -0.1514   0.0024   1.0000   -3.7986   0.0000   0.3191   
 10.900   1.7166   0.03552   0.02819   -0.1508   0.0023   1.0000   -3.8332   0.0000   0.3184   
 11.000   1.7204   0.03613   0.02883   -0.1502   0.0023   1.0000   -3.8683   0.0000   0.3177   
 11.100   1.7242   0.03674   0.02947   -0.1497   0.0023   1.0000   -3.9036   0.0000   0.3170   
 11.200   1.7275   0.03741   0.03016   -0.1491   0.0023   1.0000   -3.9377   0.0000   0.3163   
 11.300   1.7306   0.03809   0.03088   -0.1486   0.0023   1.0000   -3.9714   0.0000   0.3156   
 11.400   1.7338   0.03877   0.03159   -0.1480   0.0022   1.0000   -4.0056   0.0000   0.3149   
 11.500   1.7372   0.03944   0.03228   -0.1475   0.0022   1.0000   -4.0403   0.0000   0.3142   
 11.600   1.7406   0.04011   0.03301   -0.1470   0.0022   1.0000   -4.0745   0.0000   0.3135   
 11.700   1.7436   0.04082   0.03375   -0.1464   0.0022   1.0000   -4.1082   0.0000   0.3129   
 11.800   1.7461   0.04160   0.03456   -0.1459   0.0022   1.0000   -4.1405   0.0000   0.3122   
 11.900   1.7486   0.04238   0.03537   -0.1454   0.0022   1.0000   -4.1727   0.0000   0.3116   
 12.000   1.7510   0.04314   0.03617   -0.1448   0.0022   1.0000   -4.2052   0.0000   0.3109   
 12.100   1.7536   0.04390   0.03697   -0.1443   0.0022   1.0000   -4.2379   0.0000   0.3103   
 12.200   1.7560   0.04469   0.03779   -0.1438   0.0022   1.0000   -4.2761   0.0000   0.3097   
 12.300   1.7576   0.04558   0.03872   -0.1433   0.0022   1.0000   -4.3334   0.0000   0.3091   
 12.400   1.7592   0.04649   0.03966   -0.1428   0.0023   1.0000   -4.3908   0.0000   0.3085   
 12.500   1.7611   0.04737   0.04058   -0.1423   0.0023   1.0000   -4.4501   0.0000   0.3079   
 12.600   1.7632   0.04824   0.04148   -0.1418   0.0023   1.0000   -4.5105   0.0000   0.3073   
 12.700   1.7653   0.04912   0.04239   -0.1414   0.0023   1.0000   -4.5713   0.0000   0.3068   
 12.800   1.7673   0.05002   0.04333   -0.1409   0.0023   1.0000   -4.6316   0.0000   0.3062   
 12.900   1.7683   0.05105   0.04440   -0.1405   0.0023   1.0000   -4.6873   0.0000   0.3057   
 13.000   1.7693   0.05210   0.04550   -0.1401   0.0023   1.0000   -4.7427   0.0000   0.3052   
 13.100   1.7706   0.05312   0.04655   -0.1397   0.0023   1.0000   -4.8001   0.0000   0.3047   
 13.200   1.7720   0.05412   0.04759   -0.1393   0.0023   1.0000   -4.8585   0.0000   0.3042   
 13.300   1.7735   0.05513   0.04863   -0.1389   0.0024   1.0000   -4.9170   0.0000   0.3036   
 13.400   1.7743   0.05623   0.04978   -0.1386   0.0024   1.0000   -4.9721   0.0000   0.3032   
 13.500   1.7744   0.05744   0.05103   -0.1382   0.0024   1.0000   -5.0235   0.0000   0.3027   
 13.600   1.7749   0.05860   0.05223   -0.1379   0.0024   1.0000   -5.0773   0.0000   0.3023   
 13.700   1.7758   0.05971   0.05338   -0.1376   0.0024   1.0000   -5.1330   0.0000   0.3019   
 13.800   1.7767   0.06082   0.05453   -0.1373   0.0025   1.0000   -5.1891   0.0000   0.3014   
 13.900   1.7776   0.06194   0.05568   -0.1370   0.0025   1.0000   -5.2449   0.0000   0.3010   
 14.000   1.7780   0.06313   0.05692   -0.1367   0.0025   1.0000   -5.2982   0.0000   0.3005   
 14.100   1.7773   0.06450   0.05834   -0.1365   0.0025   1.0000   -5.3452   0.0000   0.3002   
 14.200   1.7770   0.06583   0.05970   -0.1362   0.0025   1.0000   -5.3937   0.0000   0.2999   
 14.300   1.7770   0.06710   0.06102   -0.1360   0.0026   1.0000   -5.4443   0.0000   0.2995   
 14.400   1.7772   0.06836   0.06231   -0.1358   0.0026   1.0000   -5.4954   0.0000   0.2991   
 14.500   1.7772   0.06963   0.06362   -0.1356   0.0026   1.0000   -5.5456   0.0000   0.2988   
 14.600   1.7759   0.07112   0.06516   -0.1355   0.0027   1.0000   -5.5880   0.0000   0.2985   
 14.700   1.7747   0.07262   0.06670   -0.1354   0.0027   1.0000   -5.6303   0.0000   0.2983   
 14.800   1.7742   0.07400   0.06812   -0.1352   0.0027   1.0000   -5.6761   0.0000   0.2980   
 14.900   1.7740   0.07533   0.06950   -0.1351   0.0027   1.0000   -5.7231   0.0000   0.2977   
 15.000   1.7739   0.07666   0.07086   -0.1350   0.0028   1.0000   -5.7700   0.0000   0.2973   
 15.100   1.7737   0.07799   0.07225   -0.1349   0.0028   1.0000   -5.8177   0.0000   0.2970   
 15.200   1.7720   0.07954   0.07384   -0.1349   0.0029   1.0000   -5.8560   0.0000   0.2969   
 15.300   1.7699   0.08116   0.07550   -0.1349   0.0029   1.0000   -5.8908   0.0000   0.2967   
 15.400   1.7688   0.08264   0.07703   -0.1349   0.0029   1.0000   -5.9301   0.0000   0.2965   
 15.500   1.7680   0.08409   0.07851   -0.1348   0.0030   1.0000   -5.9711   0.0000   0.2963   
 15.600   1.7673   0.08553   0.07999   -0.1348   0.0030   1.0000   -6.0119   0.0000   0.2960   
 15.700   1.7657   0.08714   0.08164   -0.1349   0.0031   1.0000   -6.0473   0.0000   0.2959   
 15.800   1.7630   0.08894   0.08349   -0.1351   0.0031   1.0000   -6.0770   0.0000   0.2958   
 15.900   1.7617   0.09055   0.08514   -0.1352   0.0031   1.0000   -6.1131   0.0000   0.2957   
 16.000   1.7607   0.09209   0.08671   -0.1353   0.0032   1.0000   -6.1515   0.0000   0.2956   
 16.100   1.7599   0.09361   0.08828   -0.1354   0.0032   1.0000   -6.1902   0.0000   0.2954   
 16.200   1.7589   0.09516   0.08986   -0.1355   0.0033   1.0000   -6.2280   0.0000   0.2953   
 16.300   1.7571   0.09688   0.09163   -0.1358   0.0033   1.0000   -6.2606   0.0000   0.2952   
 16.400   1.7541   0.09883   0.09363   -0.1361   0.0034   1.0000   -6.2863   0.0000   0.2953   
 16.500   1.7521   0.10060   0.09544   -0.1364   0.0034   1.0000   -6.3175   0.0000   0.2953   
 16.600   1.7505   0.10228   0.09717   -0.1366   0.0035   1.0000   -6.3510   0.0000   0.2952   
 16.700   1.7490   0.10395   0.09888   -0.1369   0.0035   1.0000   -6.3845   0.0000   0.2952   
 16.800   1.7471   0.10573   0.10072   -0.1373   0.0036   1.0000   -6.4148   0.0000   0.2952   
 16.900   1.7436   0.10779   0.10283   -0.1378   0.0036   1.0000   -6.4363   0.0000   0.2954   
 17.000   1.7416   0.10960   0.10470   -0.1382   0.0037   1.0000   -6.4650   0.0000   0.2954   
 17.100   1.7400   0.11130   0.10645   -0.1385   0.0038   1.0000   -6.4965   0.0000   0.2955   
 17.200   1.7387   0.11297   0.10817   -0.1389   0.0038   1.0000   -6.5288   0.0000   0.2955   
 17.300   1.7373   0.11466   0.10991   -0.1393   0.0039   1.0000   -6.5600   0.0000   0.2955   
 17.400   1.7350   0.11651   0.11182   -0.1398   0.0039   1.0000   -6.5853   0.0000   0.2956   
 17.500   1.7308   0.11873   0.11410   -0.1405   0.0040   1.0000   -6.5987   0.0000   0.2959   
 17.600   1.7278   0.12071   0.11614   -0.1411   0.0040   1.0000   -6.6185   0.0000   0.2962   
 17.700   1.7254   0.12259   0.11808   -0.1416   0.0041   1.0000   -6.6407   0.0000   0.2963   
 17.800   1.7230   0.12448   0.12003   -0.1422   0.0042   1.0000   -6.6613   0.0000   0.2965   
 17.900   1.7189   0.12668   0.12229   -0.1430   0.0042   1.0000   -6.6713   0.0000   0.2969   
 18.000   1.7141   0.12901   0.12469   -0.1438   0.0042   1.0000   -6.6761   0.0000   0.2974   
 18.100   1.7107   0.13109   0.12684   -0.1446   0.0043   1.0000   -6.6860   0.0000   0.2977   
 18.200   1.7071   0.13317   0.12899   -0.1453   0.0044   1.0000   -6.6924   0.0000   0.2980   
 18.300   1.7027   0.13541   0.13130   -0.1462   0.0044   1.0000   -6.6883   0.0000   0.2985   
 18.400   1.6953   0.13821   0.13420   -0.1473   0.0045   1.0000   -6.6556   0.0000   0.2993   
 18.500   1.6856   0.14150   0.13760   -0.1488   0.0047   1.0000   -6.5913   0.0000   0.3004   
 18.600   1.6844   0.14319   0.13932   -0.1495   0.0048   1.0000   -6.6283   0.0000   0.3006   
 18.700   1.6834   0.14485   0.14102   -0.1502   0.0048   1.0000   -6.6658   0.0000   0.3008   
 18.800   1.6823   0.14654   0.14274   -0.1509   0.0049   1.0000   -6.7019   0.0000   0.3010   
 18.900   1.6796   0.14852   0.14476   -0.1519   0.0050   1.0000   -6.7249   0.0000   0.3015   
 19.000   1.6763   0.15055   0.14684   -0.1530   0.0050   1.0000   -6.7427   0.0000   0.3020   
 19.100   1.6749   0.15220   0.14852   -0.1539   0.0051   1.0000   -6.7737   0.0000   0.3024   
 19.200   1.6739   0.15374   0.15009   -0.1547   0.0052   1.0000   -6.8081   0.0000   0.3026   
 19.300   1.6729   0.15527   0.15165   -0.1555   0.0053   1.0000   -6.8424   0.0000   0.3029   
 19.400   1.6718   0.15684   0.15326   -0.1564   0.0054   1.0000   -6.8750   0.0000   0.3032   
 19.500   1.6703   0.15848   0.15494   -0.1573   0.0055   1.0000   -6.9045   0.0000   0.3036   
 19.600   1.6678   0.16038   0.15688   -0.1583   0.0056   1.0000   -6.9245   0.0000   0.3041   
 19.700   1.6638   0.16264   0.15919   -0.1597   0.0056   1.0000   -6.9311   0.0000   0.3048   
 19.800   1.6613   0.16462   0.16121   -0.1608   0.0057   1.0000   -6.9487   0.0000   0.3054   
 19.900   1.6590   0.16652   0.16315   -0.1619   0.0058   1.0000   -6.9688   0.0000   0.3059   
 20.000   1.6568   0.16844   0.16512   -0.1629   0.0060   1.0000   -6.9878   0.0000   0.3064   
