XFLR5 v6.02 Beta

 Calculated polar for: WORTMANN FX 63-137

 1 1 Reynolds number fixed          Mach number fixed         

 xtrf =   1.000 (top)        1.000 (bottom)
 Mach =   0.000     Re =    27.000 e 6     Ncrit =   9.000

  alpha     CL        CD       CDp       CM    Top Xtr Bot Xtr   Cpmin    Chinge    XCp    
 ------- -------- --------- --------- -------- ------- ------- -------- --------- ---------
 -21.500  -1.0711   0.06847   0.06556  -0.1379  0.6021  0.0024  -24.0793   0.0000   0.0838
 -21.000  -1.1377   0.05311   0.05005  -0.1499  0.6160  0.0024  -25.0712   0.0000   0.0834
 -20.500  -1.1804   0.04138   0.03816  -0.1596  0.6110  0.0024  -25.5301   0.0000   0.0822
 -20.000  -1.1884   0.03477   0.03144  -0.1648  0.5954  0.0024  -25.3109   0.0000   0.0803
 -19.500  -1.1929   0.02891   0.02543  -0.1695  0.5628  0.0025  -25.0064   0.0000   0.0785
 -19.000  -1.1846   0.02457   0.02098  -0.1726  0.5505  0.0026  -24.4774   0.0000   0.0763
 -18.500  -1.1722   0.02098   0.01733  -0.1744  0.5423  0.0026  -23.8666   0.0000   0.0745
 -18.000  -1.1425   0.01799   0.01427  -0.1782  0.5325  0.0027  -23.0411   0.0000   0.0683
 -17.500  -1.0938   0.01551   0.01168  -0.1844  0.5025  0.0028  -21.9952   0.0000   0.0565
 -17.000  -1.0437   0.01427   0.01021  -0.1871  0.4242  0.0030  -20.9120   0.0000   0.0464
 -16.500  -0.9903   0.01330   0.00918  -0.1888  0.4078  0.0031  -19.7986   0.0000   0.0355
 -16.000  -0.9351   0.01247   0.00831  -0.1903  0.4015  0.0033  -18.6864   0.0000   0.0230
 -15.500  -0.8788   0.01176   0.00755  -0.1917  0.4006  0.0034  -17.5868   0.0000   0.0088
 -15.000  -0.8217   0.01113   0.00690  -0.1929  0.4002  0.0035  -16.5055   0.0000  -0.0077
 -14.500  -0.7656   0.01067   0.00632  -0.1937  0.3638  0.0036  -15.4630   0.0000  -0.0259
 -14.000  -0.7098   0.01032   0.00582  -0.1943  0.2953  0.0037  -14.4535   0.0000  -0.0467
 -13.500  -0.6515   0.00990   0.00534  -0.1953  0.2780  0.0037  -13.4983   0.0000  -0.0730
 -13.000  -0.5927   0.00949   0.00490  -0.1963  0.2771  0.0038  -12.5978   0.0000  -0.1049
 -12.500  -0.5344   0.00918   0.00452  -0.1972  0.2495  0.0038  -11.7292   0.0000  -0.1432
 -12.000  -0.4757   0.00890   0.00416  -0.1980  0.2210  0.0039  -10.8847   0.0000  -0.1914
 -11.500  -0.4162   0.00859   0.00382  -0.1989  0.2220  0.0039  -10.0541   0.0000  -0.2548
 -11.000  -0.3574   0.00838   0.00353  -0.1997  0.1911  0.0040  -9.2649   0.0000  -0.3376
 -10.500  -0.2979   0.00815   0.00325  -0.2005  0.1833  0.0040  -8.4987   0.0000  -0.4554
 -10.000  -0.2381   0.00793   0.00301  -0.2014  0.1753  0.0040  -7.7603   0.0000  -0.6332
  -9.500  -0.1782   0.00773   0.00278  -0.2023  0.1700  0.0041  -7.0533   0.0000  -0.9313
  -9.000  -0.1183   0.00755   0.00257  -0.2031  0.1686  0.0041  -6.3802   0.0000  -1.5320
  -8.500  -0.0590   0.00744   0.00240  -0.2038  0.1461  0.0041  -5.7336   0.0000  -3.3273
  -8.000   0.0007   0.00732   0.00224  -0.2046  0.1406  0.0042  -5.1144   0.0000  299.1068
  -7.500   0.0604   0.00721   0.00210  -0.2053  0.1354  0.0042  -4.5243   0.0000   3.7490
  -7.000   0.1202   0.00712   0.00198  -0.2061  0.1317  0.0043  -4.0484   0.0000   2.0114
  -6.500   0.1800   0.00703   0.00188  -0.2068  0.1272  0.0043  -3.6602   0.0000   1.4281
  -6.000   0.2397   0.00697   0.00179  -0.2075  0.1240  0.0043  -3.2867   0.0000   1.1358
  -5.500   0.2993   0.00691   0.00173  -0.2082  0.1236  0.0044  -2.9274   0.0000   0.9602
  -5.000   0.3587   0.00687   0.00168  -0.2088  0.1232  0.0044  -2.5816   0.0000   0.8431
  -4.500   0.4181   0.00685   0.00164  -0.2094  0.1227  0.0045  -2.2547   0.0000   0.7593
  -4.000   0.4773   0.00684   0.00162  -0.2100  0.1220  0.0045  -1.9419   0.0000   0.6964
  -3.500   0.5350   0.00696   0.00165  -0.2103  0.0939  0.0046  -1.6484   0.0000   0.6479
  -3.000   0.5938   0.00699   0.00166  -0.2108  0.0907  0.0060  -1.3664   0.0000   0.6086
  -2.500   0.6525   0.00702   0.00168  -0.2113  0.0874  0.0064  -1.0985   0.0000   0.5763
  -2.000   0.7110   0.00707   0.00171  -0.2118  0.0843  0.0071  -0.9551   0.0000   0.5493
  -1.500   0.7693   0.00712   0.00176  -0.2122  0.0838  0.0086  -1.0052   0.0000   0.5264
  -1.000   0.8275   0.00719   0.00182  -0.2126  0.0828  0.0103  -1.0574   0.0000   0.5066
  -0.500   0.8846   0.00735   0.00194  -0.2129  0.0682  0.0152  -1.1092   0.0000   0.4895
   0.000   0.9413   0.00752   0.00205  -0.2130  0.0563  0.0155  -1.1612   0.0000   0.4744
   0.500   0.9984   0.00765   0.00216  -0.2132  0.0510  0.0159  -1.2151   0.0000   0.4610
   1.000   1.0556   0.00776   0.00227  -0.2135  0.0523  0.0171  -1.2788   0.0000   0.4490
   1.500   1.1125   0.00789   0.00239  -0.2137  0.0517  0.0173  -1.3540   0.0000   0.4381
   2.000   1.1688   0.00805   0.00254  -0.2138  0.0501  0.0215  -1.4298   0.0000   0.4282
   2.500   1.2201   0.00864   0.00299  -0.2129  0.0035  0.0376  -1.5146   0.0000   0.4191
   3.000   1.2752   0.00887   0.00320  -0.2128  0.0026  0.0383  -1.6262   0.0000   0.4108
   3.500   1.3300   0.00911   0.00343  -0.2127  0.0021  0.0462  -1.7430   0.0000   0.4031
   4.000   1.3843   0.00937   0.00368  -0.2125  0.0026  0.0499  -1.8811   0.0000   0.3959
   4.500   1.4384   0.00963   0.00394  -0.2123  0.0020  0.0665  -2.0579   0.0000   0.3892
   5.000   1.4916   0.00993   0.00422  -0.2119  0.0014  0.0734  -2.2384   0.0000   0.3829
   5.500   1.5448   0.01023   0.00453  -0.2115  0.0013  0.1026  -2.4234   0.0000   0.3770
   6.000   1.5975   0.01054   0.00488  -0.2111  0.0012  0.1527  -2.6125   0.0000   0.3714
   8.000   1.7985   0.01210   0.00645  -0.2078  0.0012  0.2203  -3.3971   0.0000   0.3514
   8.500   1.8485   0.01250   0.00695  -0.2071  0.0012  0.3314  -3.6033   0.0000   0.3470
   9.500   1.9393   0.01353   0.00802  -0.2039  0.0011  0.3801  -4.1344   0.0000   0.3382
  10.000   1.9836   0.01407   0.00867  -0.2022  0.0011  0.4801  -4.6913   0.0000   0.3340
  10.500   2.0122   0.01473   0.00936  -0.1972  0.0011  0.4962  -5.1888   0.0000   0.3291
  11.000   2.0426   0.01551   0.01015  -0.1928  0.0011  0.4990  -5.7171   0.0000   0.3245
  11.500   2.0738   0.01640   0.01108  -0.1888  0.0011  0.5277  -6.2743   0.0000   0.3202
  12.000   2.1021   0.01744   0.01215  -0.1845  0.0010  0.5477  -6.8370   0.0000   0.3159
  12.500   2.1293   0.01865   0.01341  -0.1804  0.0010  0.5639  -7.4123   0.0000   0.3118
  13.000   2.1550   0.02007   0.01488  -0.1763  0.0010  0.5961  -7.9960   0.0000   0.3078
  13.500   2.1792   0.02170   0.01658  -0.1724  0.0009  0.6395  -8.5874   0.0000   0.3040
  14.000   2.2007   0.02359   0.01855  -0.1684  0.0009  0.6862  -9.1780   0.0000   0.3003
  14.500   2.2207   0.02577   0.02080  -0.1646  0.0009  0.7112  -9.7740   0.0000   0.2967
  15.000   2.2399   0.02825   0.02336  -0.1612  0.0009  0.7504  -10.3788   0.0000   0.2934
  15.500   2.2575   0.03108   0.02629  -0.1581  0.0008  0.8053  -10.9889   0.0000   0.2902
  16.000   2.2790   0.03425   0.02971  -0.1563  0.0008  1.0000  -11.6463   0.0000   0.2875
  16.500   2.2897   0.03788   0.03340  -0.1532  0.0008  1.0000  -12.2284   0.0000   0.2845
  17.000   2.2962   0.04196   0.03754  -0.1502  0.0008  1.0000  -12.7872   0.0000   0.2816
  18.000   2.3034   0.05182   0.04752  -0.1453  0.0006  1.0000  -13.8846   0.0000   0.2766
  19.500   2.2129   0.08099   0.07721  -0.1400  0.0016  1.0000  -14.5000   0.0000   0.2723


