XFLR5 v6.02 Beta

 Calculated polar for: WORTMANN FX 63-137

 1 1 Reynolds number fixed          Mach number fixed         

 xtrf =   1.000 (top)        1.000 (bottom)
 Mach =   0.000     Re =    64.250 e 6     Ncrit =   9.000

  alpha     CL        CD       CDp       CM    Top Xtr Bot Xtr   Cpmin    Chinge    XCp    
 ------- -------- --------- --------- -------- ------- ------- -------- --------- ---------
 -26.000  -0.5007   0.25353   0.25131  -0.0284  0.3034  0.0013  -6.1018   0.0000   0.1440
 -25.500  -0.4839   0.24847   0.24623  -0.0325  0.2991  0.0013  -5.8730   0.0000   0.1339
 -25.000  -0.4670   0.24345   0.24118  -0.0365  0.2928  0.0013  -5.6539   0.0000   0.1230
 -24.500  -0.4500   0.23852   0.23620  -0.0405  0.2491  0.0013  -5.4435   0.0000   0.1114
 -24.000  -0.4328   0.23367   0.23131  -0.0444  0.2341  0.0013  -5.2392   0.0000   0.0989
 -23.500  -0.4153   0.22895   0.22657  -0.0482  0.2222  0.0013  -5.0385   0.0000   0.0852
 -23.000  -0.3976   0.22446   0.22206  -0.0520  0.2216  0.0013  -4.8449   0.0000   0.0702
 -22.500  -0.3795   0.22041   0.21800  -0.0558  0.2212  0.0013  -4.6544   0.0000   0.0538
 -21.500  -1.2998   0.03824   0.03487  -0.1650  0.4142  0.0014  -28.5169   0.0000   0.0892
 -21.000  -1.3029   0.03264   0.02919  -0.1692  0.4102  0.0014  -28.1653   0.0000   0.0879
 -20.500  -1.2990   0.02795   0.02444  -0.1725  0.4066  0.0014  -27.6792   0.0000   0.0864
 -20.000  -1.2910   0.02365   0.02008  -0.1755  0.4029  0.0014  -27.1202   0.0000   0.0846
 -19.500  -1.2742   0.02046   0.01684  -0.1772  0.4019  0.0014  -26.4043   0.0000   0.0828
 -19.000  -1.2496   0.01770   0.01405  -0.1796  0.4014  0.0015  -25.5889   0.0000   0.0793
 -17.500  -1.0968   0.01313   0.00922  -0.1901  0.3080  0.0017  -22.1666   0.0000   0.0517
 -17.000  -1.0426   0.01238   0.00842  -0.1914  0.3005  0.0018  -21.0072   0.0000   0.0421
 -16.500  -0.9873   0.01170   0.00771  -0.1926  0.2934  0.0019  -19.8593   0.0000   0.0311
 -16.000  -0.9310   0.01109   0.00707  -0.1937  0.2865  0.0020  -18.7278   0.0000   0.0184
 -15.500  -0.8740   0.01053   0.00648  -0.1947  0.2821  0.0021  -17.6166   0.0000   0.0039
 -14.500  -0.7595   0.00962   0.00545  -0.1965  0.2236  0.0023  -15.4790   0.0000  -0.0318
 -14.000  -0.7010   0.00919   0.00499  -0.1975  0.2216  0.0025  -14.4427   0.0000  -0.0550
 -13.000  -0.5837   0.00847   0.00418  -0.1994  0.1921  0.0027  -12.6248   0.0000  -0.1154
 -12.500  -0.5246   0.00815   0.00382  -0.2003  0.1692  0.0029  -11.7537   0.0000  -0.1564
 -12.000  -0.4650   0.00784   0.00349  -0.2012  0.1690  0.0032  -10.9046   0.0000  -0.2085
 -11.000  -0.3457   0.00731   0.00289  -0.2030  0.1454  0.0038  -9.2828   0.0000  -0.3671
 -10.500  -0.2861   0.00712   0.00266  -0.2038  0.1404  0.0039  -8.5127   0.0000  -0.4961
 -10.000  -0.2263   0.00695   0.00246  -0.2046  0.1352  0.0040  -7.7718   0.0000  -0.6935
  -9.500  -0.1665   0.00679   0.00229  -0.2054  0.1301  0.0041  -7.0605   0.0000  -1.0334
  -9.000  -0.1067   0.00666   0.00214  -0.2061  0.1239  0.0041  -6.3788   0.0000  -1.7551
  -8.500  -0.0468   0.00654   0.00200  -0.2069  0.1236  0.0041  -5.7249   0.0000  -4.3246
  -8.000   0.0131   0.00643   0.00188  -0.2076  0.1234  0.0042  -5.1005   0.0000  16.6676
  -7.500   0.0729   0.00634   0.00177  -0.2083  0.1230  0.0042  -4.5058   0.0000   3.1941
  -7.000   0.1326   0.00626   0.00168  -0.2090  0.1228  0.0043  -4.0428   0.0000   1.8690
  -6.500   0.1918   0.00624   0.00161  -0.2096  0.1031  0.0043  -3.6528   0.0000   1.3702
  -6.000   0.2513   0.00621   0.00155  -0.2102  0.1001  0.0043  -3.2767   0.0000   1.1059
  -5.500   0.3107   0.00618   0.00150  -0.2108  0.0973  0.0044  -2.9159   0.0000   0.9428
  -5.000   0.3700   0.00616   0.00147  -0.2114  0.0947  0.0044  -2.5703   0.0000   0.8321
  -4.500   0.4293   0.00615   0.00144  -0.2120  0.0893  0.0044  -2.2400   0.0000   0.7521
  -4.000   0.4885   0.00616   0.00143  -0.2126  0.0843  0.0045  -1.9255   0.0000   0.6915
  -3.500   0.5475   0.00616   0.00143  -0.2131  0.0842  0.0045  -1.6269   0.0000   0.6440
  -3.000   0.6065   0.00618   0.00144  -0.2137  0.0841  0.0046  -1.3440   0.0000   0.6057
  -2.500   0.6653   0.00621   0.00146  -0.2142  0.0839  0.0046  -1.0765   0.0000   0.5743
  -2.000   0.7223   0.00639   0.00155  -0.2143  0.0499  0.0049  -0.9620   0.0000   0.5480
  -1.500   0.7804   0.00647   0.00161  -0.2147  0.0462  0.0057  -1.0124   0.0000   0.5255
  -1.000   0.8385   0.00655   0.00167  -0.2150  0.0437  0.0067  -1.0648   0.0000   0.5061
  -0.500   0.8964   0.00664   0.00174  -0.2154  0.0414  0.0074  -1.1174   0.0000   0.4892
   0.000   0.9541   0.00673   0.00183  -0.2157  0.0392  0.0079  -1.1703   0.0000   0.4742
   0.500   1.0116   0.00683   0.00192  -0.2160  0.0382  0.0099  -1.2252   0.0000   0.4610
   1.000   1.0691   0.00693   0.00202  -0.2164  0.0403  0.0170  -1.2904   0.0000   0.4491
   1.500   1.1261   0.00706   0.00213  -0.2166  0.0394  0.0171  -1.3661   0.0000   0.4383
   2.500   1.2358   0.00765   0.00261  -0.2162  0.0015  0.0371  -1.5310   0.0000   0.4195
   3.500   1.3468   0.00806   0.00298  -0.2161  0.0013  0.0392  -1.7647   0.0000   0.4036
   4.000   1.4017   0.00828   0.00319  -0.2160  0.0013  0.0420  -1.9110   0.0000   0.3965
   4.500   1.4563   0.00852   0.00342  -0.2159  0.0013  0.0478  -2.0898   0.0000   0.3899
   5.500   1.5642   0.00904   0.00392  -0.2154  0.0013  0.0736  -2.4603   0.0000   0.3778
   6.000   1.6177   0.00932   0.00421  -0.2151  0.0012  0.1076  -2.6519   0.0000   0.3722
   6.500   1.6702   0.00962   0.00450  -0.2147  0.0012  0.1195  -2.8468   0.0000   0.3669
   7.000   1.7225   0.00994   0.00482  -0.2142  0.0012  0.1456  -3.0458   0.0000   0.3619
   7.500   1.7737   0.01029   0.00516  -0.2135  0.0012  0.1467  -3.2474   0.0000   0.3571
   8.000   1.8240   0.01066   0.00552  -0.2127  0.0012  0.1464  -3.4519   0.0000   0.3524
   8.500   1.8736   0.01105   0.00590  -0.2118  0.0012  0.1628  -3.6592   0.0000   0.3479
   9.000   1.9230   0.01145   0.00633  -0.2109  0.0012  0.2185  -3.9363   0.0000   0.3436
   9.500   1.9709   0.01188   0.00678  -0.2097  0.0012  0.2492  -4.3154   0.0000   0.3394
  10.000   2.0180   0.01234   0.00728  -0.2085  0.0012  0.3088  -4.8997   0.0000   0.3353
  11.000   2.1051   0.01340   0.00838  -0.2046  0.0011  0.3692  -6.1195   0.0000   0.3272
  11.500   2.1315   0.01404   0.00902  -0.1992  0.0011  0.3696  -6.6630   0.0000   0.3224
  12.000   2.1603   0.01479   0.00978  -0.1945  0.0010  0.3697  -7.2426   0.0000   0.3180
  12.500   2.1898   0.01566   0.01066  -0.1902  0.0010  0.3715  -7.8483   0.0000   0.3138
  13.000   2.2187   0.01664   0.01171  -0.1861  0.0010  0.4339  -8.4709   0.0000   0.3097
  13.500   2.2458   0.01782   0.01293  -0.1819  0.0009  0.4674  -9.1015   0.0000   0.3058
  15.000   2.2690   0.02562   0.02103  -0.1634  0.0018  0.5274  -10.5852   0.0000   0.2934
  15.500   2.2866   0.02813   0.02360  -0.1598  0.0023  0.5621  -11.2284   0.0000   0.2901
  16.000   2.2993   0.03117   0.02670  -0.1561  0.0027  0.5799  -11.8167   0.0000   0.2868
  16.500   2.3104   0.03465   0.03026  -0.1527  0.0031  0.6226  -12.4024   0.0000   0.2838
  17.000   2.3164   0.03859   0.03427  -0.1493  0.0034  0.6381  -12.9552   0.0000   0.2808
  17.500   2.3193   0.04312   0.03889  -0.1463  0.0040  0.6592  -13.4877   0.0000   0.2781
  18.000   2.3213   0.04821   0.04407  -0.1438  0.0043  0.6901  -14.0226   0.0000   0.2756


