XFLR5 v6.02 Beta

 Calculated polar for: WORTMANN FX 63-137

 1 1 Reynolds number fixed          Mach number fixed         

 xtrf =   1.000 (top)        1.000 (bottom)
 Mach =   0.000     Re =    36.250 e 6     Ncrit =   9.000

  alpha     CL        CD       CDp       CM    Top Xtr Bot Xtr   Cpmin    Chinge    XCp    
 ------- -------- --------- --------- -------- ------- ------- -------- --------- ---------
 -21.500  -1.1581   0.05630   0.05317  -0.1486  0.5324  0.0019  -25.8156   0.0000   0.0857
 -20.500  -1.2188   0.03668   0.03332  -0.1643  0.5309  0.0020  -26.2446   0.0000   0.0832
 -20.000  -1.2217   0.03112   0.02762  -0.1684  0.4968  0.0020  -25.9072   0.0000   0.0817
 -19.500  -1.2190   0.02615   0.02256  -0.1721  0.4916  0.0021  -25.4642   0.0000   0.0798
 -19.000  -1.2052   0.02245   0.01879  -0.1745  0.4854  0.0021  -24.8324   0.0000   0.0775
 -18.500  -1.1892   0.01929   0.01558  -0.1762  0.4786  0.0022  -24.1583   0.0000   0.0753
 -18.000  -1.1474   0.01660   0.01283  -0.1814  0.4682  0.0023  -23.1736   0.0000   0.0663
 -17.500  -1.0953   0.01470   0.01075  -0.1868  0.4013  0.0024  -22.0678   0.0000   0.0546
 -17.000  -1.0437   0.01368   0.00963  -0.1885  0.3679  0.0025  -20.9524   0.0000   0.0450
 -16.500  -0.9898   0.01281   0.00870  -0.1900  0.3585  0.0026  -19.8304   0.0000   0.0342
 -16.000  -0.9345   0.01203   0.00788  -0.1914  0.3491  0.0028  -18.7160   0.0000   0.0217
 -15.500  -0.8780   0.01133   0.00714  -0.1927  0.3426  0.0029  -17.6156   0.0000   0.0074
 -15.000  -0.8207   0.01071   0.00649  -0.1939  0.3387  0.0031  -16.5340   0.0000  -0.0093
 -14.500  -0.7643   0.01025   0.00591  -0.1947  0.2961  0.0033  -15.4906   0.0000  -0.0277
 -13.500  -0.6486   0.00943   0.00495  -0.1965  0.2407  0.0036  -13.5322   0.0000  -0.0762
 -13.000  -0.5898   0.00906   0.00454  -0.1975  0.2317  0.0037  -12.6302   0.0000  -0.1086
 -12.500  -0.5306   0.00872   0.00417  -0.1985  0.2220  0.0038  -11.7528   0.0000  -0.1484
 -12.000  -0.4723   0.00849   0.00384  -0.1992  0.1780  0.0038  -10.9103   0.0000  -0.1971
 -11.500  -0.4127   0.00821   0.00354  -0.2001  0.1796  0.0039  -10.0821   0.0000  -0.2617
 -11.000  -0.3531   0.00797   0.00327  -0.2009  0.1723  0.0039  -9.2857   0.0000  -0.3483
 -10.500  -0.2934   0.00774   0.00301  -0.2018  0.1699  0.0040  -8.5173   0.0000  -0.4706
 -10.000  -0.2335   0.00754   0.00279  -0.2027  0.1693  0.0040  -7.7776   0.0000  -0.6560
  -9.500  -0.1736   0.00736   0.00258  -0.2035  0.1687  0.0041  -7.0678   0.0000  -0.9696
  -9.000  -0.1146   0.00726   0.00240  -0.2041  0.1397  0.0041  -6.3944   0.0000  -1.5993
  -8.500  -0.0548   0.00712   0.00224  -0.2049  0.1343  0.0041  -5.7422   0.0000  -3.6217
  -8.000   0.0051   0.00700   0.00210  -0.2057  0.1294  0.0042  -5.1190   0.0000  42.1146
  -7.500   0.0649   0.00690   0.00198  -0.2064  0.1245  0.0042  -4.5253   0.0000   3.5252
  -7.000   0.1247   0.00681   0.00187  -0.2071  0.1239  0.0043  -4.0510   0.0000   1.9568
  -6.500   0.1844   0.00673   0.00177  -0.2078  0.1236  0.0043  -3.6602   0.0000   1.4054
  -6.000   0.2441   0.00667   0.00170  -0.2085  0.1233  0.0043  -3.2847   0.0000   1.1240
  -5.500   0.3037   0.00662   0.00164  -0.2092  0.1229  0.0044  -2.9244   0.0000   0.9533
  -5.000   0.3632   0.00659   0.00159  -0.2098  0.1223  0.0044  -2.5780   0.0000   0.8387
  -4.500   0.4217   0.00664   0.00158  -0.2103  0.1016  0.0045  -2.2518   0.0000   0.7570
  -4.000   0.4805   0.00666   0.00157  -0.2108  0.0962  0.0045  -1.9392   0.0000   0.6950
  -3.500   0.5394   0.00668   0.00157  -0.2113  0.0885  0.0046  -1.6413   0.0000   0.6465
  -3.000   0.5983   0.00670   0.00158  -0.2118  0.0856  0.0053  -1.3588   0.0000   0.6075
  -2.500   0.6570   0.00673   0.00160  -0.2123  0.0842  0.0050  -1.0908   0.0000   0.5755
  -2.000   0.7156   0.00678   0.00163  -0.2128  0.0840  0.0061  -0.9581   0.0000   0.5488
  -1.500   0.7739   0.00684   0.00168  -0.2132  0.0827  0.0075  -1.0083   0.0000   0.5260
  -1.000   0.8306   0.00703   0.00180  -0.2133  0.0594  0.0086  -1.0594   0.0000   0.5065
  -0.500   0.8883   0.00713   0.00188  -0.2137  0.0512  0.0096  -1.1118   0.0000   0.4894
   0.000   0.9459   0.00724   0.00197  -0.2140  0.0487  0.0150  -1.1644   0.0000   0.4744
   0.500   1.0030   0.00737   0.00208  -0.2142  0.0459  0.0158  -1.2185   0.0000   0.4610
   1.000   1.0604   0.00747   0.00218  -0.2145  0.0483  0.0170  -1.2828   0.0000   0.4490
   1.500   1.1171   0.00761   0.00231  -0.2147  0.0468  0.0172  -1.3581   0.0000   0.4382
   2.000   1.1735   0.00777   0.00246  -0.2148  0.0447  0.0201  -1.4340   0.0000   0.4283
   2.500   1.2257   0.00828   0.00286  -0.2141  0.0027  0.0374  -1.5204   0.0000   0.4192
   3.000   1.2811   0.00850   0.00305  -0.2140  0.0020  0.0381  -1.6336   0.0000   0.4109
   3.500   1.3360   0.00873   0.00326  -0.2139  0.0015  0.0435  -1.7509   0.0000   0.4032
   4.000   1.3906   0.00898   0.00350  -0.2138  0.0019  0.0469  -1.8919   0.0000   0.3961
   5.000   1.4985   0.00951   0.00402  -0.2133  0.0013  0.0673  -2.2509   0.0000   0.3832
   5.500   1.5517   0.00981   0.00431  -0.2129  0.0013  0.0840  -2.4366   0.0000   0.3773
   6.500   1.6568   0.01044   0.00496  -0.2120  0.0012  0.1516  -2.8198   0.0000   0.3664
   7.000   1.7081   0.01079   0.00532  -0.2114  0.0012  0.1710  -3.0162   0.0000   0.3613
   7.500   1.7587   0.01116   0.00570  -0.2106  0.0012  0.1953  -3.2158   0.0000   0.3565
   8.000   1.8079   0.01158   0.00611  -0.2096  0.0012  0.1947  -3.4172   0.0000   0.3517
   8.500   1.8572   0.01199   0.00656  -0.2087  0.0012  0.2604  -3.6228   0.0000   0.3473
   9.000   1.9053   0.01243   0.00705  -0.2076  0.0012  0.3074  -3.8847   0.0000   0.3429
   9.500   1.9506   0.01294   0.00755  -0.2059  0.0011  0.3219  -4.1995   0.0000   0.3386
  10.000   1.9973   0.01343   0.00816  -0.2047  0.0011  0.4330  -4.7738   0.0000   0.3345
  10.500   2.0332   0.01403   0.00877  -0.2012  0.0011  0.4414  -5.3176   0.0000   0.3300
  11.000   2.0631   0.01471   0.00946  -0.1965  0.0011  0.4568  -5.8488   0.0000   0.3254
  11.500   2.0932   0.01551   0.01029  -0.1922  0.0010  0.4672  -6.4075   0.0000   0.3209
  12.000   2.1227   0.01644   0.01124  -0.1879  0.0010  0.4700  -6.9815   0.0000   0.3166
  12.500   2.1501   0.01753   0.01237  -0.1836  0.0010  0.5089  -7.5629   0.0000   0.3124
  13.000   2.1769   0.01878   0.01367  -0.1795  0.0010  0.5321  -8.1597   0.0000   0.3084
  13.500   2.2024   0.02023   0.01517  -0.1754  0.0009  0.5632  -8.7664   0.0000   0.3045
  14.000   2.2254   0.02189   0.01690  -0.1714  0.0009  0.6017  -9.3747   0.0000   0.3007
  14.500   2.2468   0.02382   0.01890  -0.1675  0.0009  0.6459  -9.9869   0.0000   0.2971
  15.500   2.2841   0.02864   0.02385  -0.1603  0.0008  0.7113  -11.2209   0.0000   0.2903
  16.000   2.3004   0.03153   0.02681  -0.1570  0.0008  0.7490  -11.8432   0.0000   0.2872
  16.500   2.3145   0.03485   0.03024  -0.1541  0.0007  0.8038  -12.4611   0.0000   0.2842
  17.500   2.2717   0.05004   0.04598  -0.1460  0.0015  1.0000  -13.0120   0.0000   0.2791
  18.000   2.2760   0.05523   0.05124  -0.1442  0.0021  1.0000  -13.6010   0.0000   0.2768
  18.500   2.2722   0.06157   0.05767  -0.1426  0.0024  1.0000  -14.0845   0.0000   0.2748
  19.000   2.2651   0.06852   0.06471  -0.1414  0.0026  1.0000  -14.5373   0.0000   0.2730
  19.500   2.2540   0.07617   0.07246  -0.1407  0.0028  1.0000  -14.9526   0.0000   0.2715


