XFLR5 v6.02 Beta

 Calculated polar for: WORTMANN FX 63-137

 1 1 Reynolds number fixed          Mach number fixed         

 xtrf =   1.000 (top)        1.000 (bottom)
 Mach =   0.000     Re =    74.750 e 6     Ncrit =   9.000

  alpha     CL        CD       CDp       CM    Top Xtr Bot Xtr   Cpmin    Chinge    XCp    
 ------- -------- --------- --------- -------- ------- ------- -------- --------- ---------
 -23.000  -1.1875   0.07025   0.06725  -0.1402  0.4014  0.0014  -27.4199   0.0000   0.0919
 -22.500  -1.2769   0.05255   0.04936  -0.1541  0.4014  0.0014  -28.8569   0.0000   0.0920
 -22.000  -1.3118   0.04247   0.03917  -0.1621  0.4014  0.0014  -29.1412   0.0000   0.0912
 -21.500  -1.3190   0.03609   0.03272  -0.1670  0.4013  0.0014  -28.8753   0.0000   0.0898
 -21.000  -1.3280   0.02987   0.02642  -0.1718  0.4013  0.0014  -28.6181   0.0000   0.0887
 -20.500  -1.3189   0.02578   0.02228  -0.1746  0.4012  0.0014  -28.0312   0.0000   0.0871
 -20.000  -1.3055   0.02205   0.01850  -0.1771  0.4012  0.0014  -27.3741   0.0000   0.0852
 -19.500  -1.2918   0.01914   0.01556  -0.1777  0.4011  0.0014  -26.6836   0.0000   0.0845
 -18.500  -1.2004   0.01444   0.01072  -0.1882  0.3690  0.0014  -24.5209   0.0000   0.0670
 -18.000  -1.1502   0.01353   0.00969  -0.1896  0.3029  0.0015  -23.3638   0.0000   0.0596
 -17.500  -1.0968   0.01272   0.00884  -0.1910  0.2947  0.0015  -22.1870   0.0000   0.0510
 -17.000  -1.0421   0.01201   0.00810  -0.1922  0.2874  0.0016  -21.0178   0.0000   0.0412
 -16.500  -0.9863   0.01137   0.00743  -0.1933  0.2801  0.0017  -19.8632   0.0000   0.0301
 -16.000  -0.9298   0.01080   0.00683  -0.1944  0.2784  0.0018  -18.7272   0.0000   0.0174
 -15.500  -0.8726   0.01027   0.00627  -0.1954  0.2781  0.0019  -17.6130   0.0000   0.0027
 -15.000  -0.8160   0.00985   0.00577  -0.1962  0.2331  0.0020  -16.5352   0.0000  -0.0135
 -14.500  -0.7579   0.00941   0.00530  -0.1971  0.2216  0.0021  -15.4714   0.0000  -0.0332
 -14.000  -0.6994   0.00900   0.00487  -0.1981  0.2210  0.0023  -14.4341   0.0000  -0.0565
 -13.500  -0.6412   0.00867   0.00447  -0.1989  0.1908  0.0024  -13.5132   0.0000  -0.0837
 -13.000  -0.5822   0.00833   0.00410  -0.1998  0.1819  0.0025  -12.6164   0.0000  -0.1171
 -12.000  -0.4638   0.00774   0.00343  -0.2016  0.1426  0.0029  -10.8994   0.0000  -0.2104
 -11.500  -0.4039   0.00744   0.00311  -0.2025  0.1439  0.0033  -10.0761   0.0000  -0.2790
 -11.000  -0.3442   0.00720   0.00284  -0.2034  0.1401  0.0035  -9.2802   0.0000  -0.3711
 -10.500  -0.2843   0.00698   0.00260  -0.2043  0.1354  0.0038  -8.5095   0.0000  -0.5024
 -10.000  -0.2244   0.00680   0.00240  -0.2051  0.1306  0.0040  -7.7667   0.0000  -0.7038
  -9.500  -0.1646   0.00665   0.00223  -0.2059  0.1255  0.0040  -7.0547   0.0000  -1.0516
  -9.000  -0.1047   0.00651   0.00207  -0.2066  0.1237  0.0041  -6.3726   0.0000  -1.7972
  -8.500  -0.0448   0.00640   0.00194  -0.2074  0.1234  0.0041  -5.7185   0.0000  -4.5351
  -8.000   0.0150   0.00629   0.00182  -0.2081  0.1231  0.0042  -5.0941   0.0000  14.5624
  -7.500   0.0748   0.00620   0.00172  -0.2088  0.1228  0.0042  -4.4995   0.0000   3.1234
  -7.000   0.1341   0.00617   0.00164  -0.2094  0.1030  0.0043  -4.0417   0.0000   1.8542
  -6.500   0.1936   0.00612   0.00157  -0.2100  0.1003  0.0043  -3.6501   0.0000   1.3620
  -6.000   0.2531   0.00609   0.00151  -0.2107  0.0975  0.0043  -3.2737   0.0000   1.1014
  -5.500   0.3126   0.00606   0.00147  -0.2113  0.0949  0.0044  -2.9125   0.0000   0.9400
  -5.000   0.3720   0.00604   0.00143  -0.2119  0.0916  0.0044  -2.5668   0.0000   0.8303
  -4.500   0.4312   0.00603   0.00141  -0.2125  0.0850  0.0044  -2.2366   0.0000   0.7509
  -4.000   0.4904   0.00603   0.00140  -0.2130  0.0842  0.0045  -1.9218   0.0000   0.6906
  -3.500   0.5495   0.00604   0.00140  -0.2136  0.0841  0.0045  -1.6231   0.0000   0.6434
  -3.000   0.6085   0.00606   0.00141  -0.2141  0.0840  0.0046  -1.3403   0.0000   0.6053
  -2.500   0.6673   0.00609   0.00143  -0.2146  0.0838  0.0046  -1.0729   0.0000   0.5739
  -2.000   0.7242   0.00628   0.00152  -0.2147  0.0465  0.0047  -0.9632   0.0000   0.5478
  -1.500   0.7824   0.00634   0.00157  -0.2151  0.0436  0.0054  -1.0138   0.0000   0.5254
  -1.000   0.8406   0.00642   0.00163  -0.2155  0.0413  0.0062  -1.0662   0.0000   0.5060
  -0.500   0.8985   0.00650   0.00170  -0.2159  0.0391  0.0069  -1.1189   0.0000   0.4891
   0.000   0.9563   0.00659   0.00178  -0.2162  0.0382  0.0074  -1.1718   0.0000   0.4742
   0.500   1.0138   0.00670   0.00187  -0.2165  0.0381  0.0093  -1.2269   0.0000   0.4610
   1.000   1.0714   0.00679   0.00197  -0.2168  0.0385  0.0169  -1.2923   0.0000   0.4491
   1.500   1.1285   0.00691   0.00208  -0.2171  0.0382  0.0171  -1.3681   0.0000   0.4384
   2.000   1.1834   0.00720   0.00229  -0.2169  0.0212  0.0200  -1.4426   0.0000   0.4286
   2.500   1.2383   0.00749   0.00255  -0.2167  0.0014  0.0370  -1.5336   0.0000   0.4196
   3.000   1.2940   0.00769   0.00272  -0.2167  0.0013  0.0379  -1.6499   0.0000   0.4113
   3.500   1.3494   0.00789   0.00291  -0.2167  0.0013  0.0385  -1.7681   0.0000   0.4037
   4.000   1.4045   0.00811   0.00312  -0.2166  0.0013  0.0408  -1.9157   0.0000   0.3966
   4.500   1.4591   0.00835   0.00333  -0.2165  0.0013  0.0464  -2.0948   0.0000   0.3900
   5.500   1.5673   0.00885   0.00382  -0.2160  0.0013  0.0714  -2.4661   0.0000   0.3779
   6.000   1.6209   0.00912   0.00411  -0.2158  0.0012  0.1036  -2.6581   0.0000   0.3723
   6.500   1.6736   0.00942   0.00439  -0.2153  0.0012  0.1145  -2.8535   0.0000   0.3671
   7.500   1.7775   0.01007   0.00503  -0.2143  0.0012  0.1460  -3.2553   0.0000   0.3572
   8.500   1.8779   0.01081   0.00575  -0.2126  0.0012  0.1512  -3.6686   0.0000   0.3481
   9.000   1.9275   0.01120   0.00616  -0.2118  0.0012  0.2058  -3.9492   0.0000   0.3438
   9.500   1.9760   0.01162   0.00660  -0.2107  0.0012  0.2491  -4.3443   0.0000   0.3396
  10.000   2.0227   0.01208   0.00706  -0.2093  0.0012  0.2721  -4.9285   0.0000   0.3355
  10.500   2.0684   0.01256   0.00758  -0.2078  0.0011  0.3215  -5.5378   0.0000   0.3314
  11.000   2.1111   0.01310   0.00812  -0.2057  0.0011  0.3313  -6.1596   0.0000   0.3274
  11.500   2.1420   0.01370   0.00873  -0.2012  0.0011  0.3385  -6.7329   0.0000   0.3229
  12.000   2.1706   0.01440   0.00944  -0.1964  0.0010  0.3394  -7.3146   0.0000   0.3184
  12.500   2.2002   0.01522   0.01029  -0.1920  0.0010  0.3694  -7.9229   0.0000   0.3142
  13.000   2.2273   0.01620   0.01129  -0.1874  0.0009  0.3817  -8.5362   0.0000   0.3100
  14.000   2.2470   0.02052   0.01586  -0.1739  0.0018  0.4536  -9.5054   0.0000   0.3011
  14.500   2.2618   0.02259   0.01797  -0.1688  0.0019  0.4647  -10.0841   0.0000   0.2972
  17.500   2.3320   0.04177   0.03757  -0.1470  0.0044  0.6276  -13.6017   0.0000   0.2780
  18.000   2.3339   0.04667   0.04254  -0.1442  0.0046  0.6431  -14.1386   0.0000   0.2754
  18.500   2.3346   0.05206   0.04802  -0.1420  0.0046  0.6647  -14.6752   0.0000   0.2731
  19.000   2.3423   0.05679   0.05283  -0.1404  0.0046  0.6971  -15.2878   0.0000   0.2707
  19.500   2.3375   0.06329   0.05943  -0.1390  0.0047  0.7306  -15.7864   0.0000   0.2688
  20.000   2.3288   0.07055   0.06679  -0.1382  0.0047  0.7672  -16.2489   0.0000   0.2671


