XFLR5 v6.02 Beta

 Calculated polar for: WORTMANN FX 63-137

 1 1 Reynolds number fixed          Mach number fixed         

 xtrf =   1.000 (top)        1.000 (bottom)
 Mach =   0.000     Re =    25.750 e 6     Ncrit =   9.000

  alpha     CL        CD       CDp       CM    Top Xtr Bot Xtr   Cpmin    Chinge    XCp    
 ------- -------- --------- --------- -------- ------- ------- -------- --------- ---------
 -21.500  -1.0272   0.07475   0.07190  -0.1330  0.5973  0.0025  -23.1961   0.0000   0.0823
 -20.500  -1.1677   0.04312   0.03995  -0.1578  0.6250  0.0025  -25.2914   0.0000   0.0820
 -20.000  -1.1846   0.03526   0.03193  -0.1643  0.6022  0.0025  -25.2378   0.0000   0.0802
 -19.000  -1.1805   0.02497   0.02141  -0.1722  0.5623  0.0026  -24.4074   0.0000   0.0760
 -18.500  -1.1685   0.02123   0.01759  -0.1744  0.5545  0.0027  -23.8085   0.0000   0.0740
 -18.000  -1.1417   0.01825   0.01453  -0.1777  0.5428  0.0028  -23.0179   0.0000   0.0687
 -17.500  -1.0930   0.01568   0.01188  -0.1839  0.5306  0.0029  -21.9725   0.0000   0.0568
 -17.000  -1.0431   0.01436   0.01033  -0.1870  0.4433  0.0030  -20.8965   0.0000   0.0464
 -16.500  -0.9905   0.01341   0.00929  -0.1886  0.4178  0.0032  -19.7911   0.0000   0.0358
 -16.000  -0.9355   0.01259   0.00842  -0.1901  0.4045  0.0033  -18.6812   0.0000   0.0234
 -15.500  -0.8793   0.01188   0.00765  -0.1914  0.4016  0.0034  -17.5822   0.0000   0.0092
 -15.000  -0.8222   0.01125   0.00699  -0.1926  0.4005  0.0035  -16.5022   0.0000  -0.0072
 -14.500  -0.7657   0.01076   0.00643  -0.1935  0.3752  0.0036  -15.4557   0.0000  -0.0256
 -14.000  -0.7101   0.01041   0.00591  -0.1941  0.3032  0.0037  -14.4482   0.0000  -0.0463
 -13.500  -0.6522   0.01000   0.00542  -0.1951  0.2787  0.0037  -13.4916   0.0000  -0.0722
 -13.000  -0.5934   0.00959   0.00498  -0.1961  0.2773  0.0038  -12.5916   0.0000  -0.1040
 -12.000  -0.3892   0.03538   0.03235  -0.1598  0.2218  0.0038  -8.7628   0.0000  -0.1905
 -11.500  -0.4092   0.02331   0.01999  -0.1794  0.2217  0.0038  -9.0796   0.0000  -0.2144
 -11.000  -0.3680   0.01781   0.01412  -0.1867  0.1934  0.0039  -8.6969   0.0000  -0.2845
 -10.000  -0.2389   0.00801   0.00305  -0.2012  0.1783  0.0040  -7.7524   0.0000  -0.6294
  -9.500  -0.1790   0.00780   0.00281  -0.2021  0.1703  0.0041  -7.0462   0.0000  -0.9248
  -9.000  -0.1191   0.00761   0.00260  -0.2029  0.1689  0.0041  -6.3752   0.0000  -1.5186
  -8.500  -0.0591   0.00745   0.00241  -0.2038  0.1684  0.0041  -5.7252   0.0000  -3.3175
  -8.000   0.0000   0.00737   0.00226  -0.2044  0.1426  0.0042  -5.1105   0.0000  9059.6846
  -7.500   0.0597   0.00727   0.00212  -0.2051  0.1373  0.0042  -4.5217   0.0000   3.7886
  -7.000   0.1195   0.00717   0.00200  -0.2059  0.1335  0.0043  -4.0466   0.0000   2.0209
  -6.500   0.1792   0.00708   0.00189  -0.2066  0.1290  0.0043  -3.6592   0.0000   1.4320
  -6.000   0.2389   0.00702   0.00181  -0.2073  0.1243  0.0043  -3.2865   0.0000   1.1379
  -5.500   0.2985   0.00696   0.00174  -0.2080  0.1238  0.0044  -2.9272   0.0000   0.9614
  -5.000   0.3580   0.00692   0.00169  -0.2086  0.1234  0.0044  -2.5819   0.0000   0.8438
  -4.500   0.4174   0.00690   0.00165  -0.2093  0.1229  0.0045  -2.2554   0.0000   0.7598
  -4.000   0.4766   0.00689   0.00163  -0.2099  0.1221  0.0045  -1.9429   0.0000   0.6968
  -3.500   0.5343   0.00701   0.00166  -0.2102  0.0950  0.0046  -1.6495   0.0000   0.6482
  -3.000   0.5930   0.00704   0.00167  -0.2107  0.0916  0.0061  -1.3676   0.0000   0.6087
  -2.500   0.6517   0.00707   0.00169  -0.2112  0.0882  0.0067  -1.0996   0.0000   0.5764
  -2.000   0.7102   0.00712   0.00172  -0.2116  0.0843  0.0073  -0.9547   0.0000   0.5494
  -1.500   0.7686   0.00717   0.00177  -0.2121  0.0840  0.0088  -1.0046   0.0000   0.5264
  -1.000   0.8269   0.00723   0.00183  -0.2125  0.0830  0.0146  -1.0570   0.0000   0.5067
  -0.500   0.8847   0.00731   0.00190  -0.2129  0.0821  0.0152  -1.1095   0.0000   0.4895
   0.000   0.9405   0.00757   0.00206  -0.2128  0.0590  0.0155  -1.1607   0.0000   0.4744
   0.500   0.9976   0.00770   0.00218  -0.2131  0.0514  0.0160  -1.2144   0.0000   0.4610
   1.000   1.0548   0.00781   0.00228  -0.2133  0.0549  0.0171  -1.2781   0.0000   0.4490
   1.500   1.1116   0.00794   0.00241  -0.2135  0.0534  0.0173  -1.3533   0.0000   0.4381
   2.000   1.1680   0.00810   0.00255  -0.2137  0.0509  0.0217  -1.4291   0.0000   0.4282
   2.500   1.2192   0.00869   0.00301  -0.2127  0.0037  0.0376  -1.5136   0.0000   0.4191
   3.000   1.2742   0.00893   0.00323  -0.2126  0.0027  0.0384  -1.6250   0.0000   0.4107
   3.500   1.3289   0.00917   0.00345  -0.2125  0.0022  0.0466  -1.7417   0.0000   0.4030
   4.000   1.3833   0.00943   0.00371  -0.2123  0.0027  0.0505  -1.8793   0.0000   0.3959
   4.500   1.4373   0.00970   0.00397  -0.2120  0.0021  0.0666  -2.0560   0.0000   0.3892
   5.000   1.4905   0.01000   0.00425  -0.2117  0.0015  0.0744  -2.2363   0.0000   0.3829
   5.500   1.5436   0.01030   0.00457  -0.2113  0.0013  0.1028  -2.4211   0.0000   0.3770
   6.000   1.5963   0.01061   0.00492  -0.2109  0.0013  0.1566  -2.6101   0.0000   0.3714
   7.000   1.6988   0.01134   0.00566  -0.2096  0.0012  0.2087  -2.9971   0.0000   0.3610
   7.500   1.7493   0.01172   0.00608  -0.2088  0.0012  0.2487  -3.1957   0.0000   0.3561
   8.000   1.7975   0.01217   0.00651  -0.2077  0.0012  0.2485  -3.3948   0.0000   0.3514
   8.500   1.8471   0.01258   0.00703  -0.2069  0.0012  0.3434  -3.6001   0.0000   0.3469
   9.000   1.8934   0.01308   0.00754  -0.2054  0.0012  0.3699  -3.8503   0.0000   0.3425
   9.500   1.9374   0.01363   0.00810  -0.2035  0.0011  0.3910  -4.1235   0.0000   0.3381
  10.000   1.9798   0.01417   0.00876  -0.2014  0.0011  0.4932  -4.6692   0.0000   0.3338
  10.500   2.0089   0.01485   0.00946  -0.1966  0.0011  0.4983  -5.1682   0.0000   0.3290
  11.000   2.0393   0.01565   0.01026  -0.1922  0.0011  0.5000  -5.6960   0.0000   0.3244
  11.500   2.0707   0.01655   0.01121  -0.1883  0.0011  0.5314  -6.2522   0.0000   0.3201
  12.000   2.0987   0.01761   0.01232  -0.1840  0.0010  0.5583  -6.8134   0.0000   0.3158
  12.500   2.1251   0.01886   0.01360  -0.1797  0.0010  0.5674  -7.3823   0.0000   0.3116
  13.000   2.1516   0.02029   0.01510  -0.1758  0.0010  0.6179  -7.9700   0.0000   0.3077
  13.500   2.1756   0.02194   0.01682  -0.1719  0.0009  0.6529  -8.5593   0.0000   0.3039
  14.000   2.1968   0.02386   0.01881  -0.1679  0.0009  0.6901  -9.1470   0.0000   0.3002
  14.500   2.2171   0.02606   0.02108  -0.1642  0.0009  0.7196  -9.7438   0.0000   0.2967
  15.000   2.2364   0.02857   0.02368  -0.1609  0.0009  0.7686  -10.3489   0.0000   0.2933
  15.500   2.2544   0.03143   0.02665  -0.1579  0.0008  0.8290  -10.9605   0.0000   0.2902
  16.000   2.2744   0.03464   0.03009  -0.1559  0.0008  1.0000  -11.6054   0.0000   0.2874
  16.500   2.2850   0.03830   0.03380  -0.1529  0.0008  1.0000  -12.1852   0.0000   0.2845
  17.000   2.2913   0.04243   0.03799  -0.1498  0.0008  1.0000  -12.7406   0.0000   0.2816
  17.500   2.2956   0.04718   0.04281  -0.1473  0.0007  1.0000  -13.2892   0.0000   0.2790
  18.000   2.2977   0.05243   0.04813  -0.1450  0.0006  1.0000  -13.8285   0.0000   0.2766
  19.500   2.2119   0.08106   0.07726  -0.1400  0.0014  1.0000  -14.4773   0.0000   0.2723


