XFLR5 v6.02 Beta

 Calculated polar for: WORTMANN FX 63-137

 1 1 Reynolds number fixed          Mach number fixed         

 xtrf =   1.000 (top)        1.000 (bottom)
 Mach =   0.000     Re =    67.750 e 6     Ncrit =   9.000

  alpha     CL        CD       CDp       CM    Top Xtr Bot Xtr   Cpmin    Chinge    XCp    
 ------- -------- --------- --------- -------- ------- ------- -------- --------- ---------
 -22.500  -1.2403   0.05739   0.05424  -0.1499  0.4048  0.0014  -28.1332   0.0000   0.0913
 -22.000  -1.2837   0.04603   0.04275  -0.1589  0.4043  0.0014  -28.6051   0.0000   0.0906
 -21.500  -1.3067   0.03745   0.03408  -0.1658  0.4050  0.0014  -28.6477   0.0000   0.0894
 -21.000  -1.3090   0.03197   0.02853  -0.1698  0.4030  0.0014  -28.2774   0.0000   0.0881
 -20.500  -1.3099   0.02673   0.02321  -0.1737  0.4021  0.0014  -27.8713   0.0000   0.0867
 -20.000  -1.2954   0.02318   0.01962  -0.1760  0.4016  0.0014  -27.1973   0.0000   0.0848
 -19.500  -1.2823   0.01985   0.01625  -0.1773  0.4012  0.0014  -26.5312   0.0000   0.0837
 -19.000  -1.2512   0.01728   0.01364  -0.1804  0.4011  0.0014  -25.6274   0.0000   0.0788
 -18.500  -1.2009   0.01502   0.01133  -0.1863  0.4010  0.0015  -24.4974   0.0000   0.0687
 -17.500  -1.0968   0.01299   0.00908  -0.1904  0.3032  0.0016  -22.1745   0.0000   0.0515
 -17.000  -1.0425   0.01225   0.00830  -0.1917  0.2958  0.0017  -21.0117   0.0000   0.0418
 -16.500  -0.9870   0.01159   0.00761  -0.1928  0.2888  0.0018  -19.8609   0.0000   0.0307
 -16.000  -0.9306   0.01099   0.00699  -0.1939  0.2818  0.0019  -18.7277   0.0000   0.0181
 -15.500  -0.8735   0.01044   0.00641  -0.1950  0.2787  0.0020  -17.6153   0.0000   0.0035
 -15.000  -0.8166   0.00999   0.00588  -0.1958  0.2475  0.0021  -16.5351   0.0000  -0.0129
 -14.500  -0.7590   0.00955   0.00540  -0.1968  0.2220  0.0023  -15.4763   0.0000  -0.0323
 -14.000  -0.7004   0.00912   0.00495  -0.1977  0.2214  0.0024  -14.4397   0.0000  -0.0555
 -13.500  -0.6421   0.00878   0.00454  -0.1986  0.1955  0.0025  -13.5185   0.0000  -0.0827
 -13.000  -0.5832   0.00843   0.00416  -0.1995  0.1892  0.0027  -12.6221   0.0000  -0.1160
 -12.000  -0.4648   0.00782   0.00347  -0.2013  0.1462  0.0031  -10.9048   0.0000  -0.2089
 -11.000  -0.3452   0.00727   0.00287  -0.2032  0.1435  0.0037  -9.2824   0.0000  -0.3685
 -10.500  -0.2854   0.00706   0.00263  -0.2040  0.1386  0.0039  -8.5115   0.0000  -0.4983
 -10.000  -0.2256   0.00689   0.00244  -0.2048  0.1336  0.0040  -7.7700   0.0000  -0.6972
  -9.500  -0.1658   0.00674   0.00227  -0.2056  0.1285  0.0041  -7.0584   0.0000  -1.0398
  -9.000  -0.1060   0.00661   0.00211  -0.2063  0.1238  0.0041  -6.3767   0.0000  -1.7698
  -8.500  -0.0461   0.00649   0.00198  -0.2071  0.1235  0.0041  -5.7227   0.0000  -4.3971
  -8.000   0.0137   0.00638   0.00186  -0.2078  0.1233  0.0042  -5.0983   0.0000  15.8527
  -7.500   0.0736   0.00629   0.00175  -0.2085  0.1228  0.0042  -4.5036   0.0000   3.1688
  -7.000   0.1333   0.00621   0.00166  -0.2092  0.1227  0.0043  -4.0417   0.0000   1.8619
  -6.500   0.1925   0.00620   0.00160  -0.2098  0.1021  0.0043  -3.6519   0.0000   1.3673
  -6.000   0.2519   0.00616   0.00153  -0.2104  0.0991  0.0043  -3.2757   0.0000   1.1043
  -5.500   0.3113   0.00614   0.00149  -0.2110  0.0964  0.0044  -2.9147   0.0000   0.9419
  -5.000   0.3707   0.00612   0.00146  -0.2116  0.0938  0.0044  -2.5691   0.0000   0.8315
  -4.500   0.4300   0.00611   0.00143  -0.2122  0.0877  0.0044  -2.2388   0.0000   0.7517
  -4.000   0.4892   0.00611   0.00142  -0.2127  0.0843  0.0045  -1.9242   0.0000   0.6912
  -3.500   0.5482   0.00612   0.00142  -0.2133  0.0842  0.0045  -1.6256   0.0000   0.6438
  -3.000   0.6072   0.00614   0.00143  -0.2138  0.0841  0.0046  -1.3427   0.0000   0.6056
  -2.500   0.6660   0.00617   0.00145  -0.2143  0.0838  0.0046  -1.0753   0.0000   0.5741
  -2.000   0.7230   0.00635   0.00154  -0.2144  0.0484  0.0048  -0.9624   0.0000   0.5480
  -1.500   0.7811   0.00643   0.00159  -0.2148  0.0453  0.0056  -1.0129   0.0000   0.5255
  -1.000   0.8392   0.00650   0.00166  -0.2152  0.0428  0.0065  -1.0653   0.0000   0.5061
  -0.500   0.8971   0.00659   0.00173  -0.2156  0.0406  0.0072  -1.1179   0.0000   0.4892
   0.000   0.9549   0.00668   0.00181  -0.2159  0.0385  0.0078  -1.1708   0.0000   0.4742
   0.500   1.0124   0.00678   0.00190  -0.2162  0.0381  0.0096  -1.2258   0.0000   0.4610
   1.000   1.0699   0.00688   0.00200  -0.2165  0.0396  0.0169  -1.2911   0.0000   0.4491
   1.500   1.1270   0.00700   0.00211  -0.2168  0.0388  0.0171  -1.3668   0.0000   0.4383
   2.000   1.1827   0.00723   0.00229  -0.2167  0.0287  0.0205  -1.4421   0.0000   0.4285
   3.500   1.3477   0.00800   0.00296  -0.2163  0.0013  0.0389  -1.7660   0.0000   0.4036
   4.000   1.4027   0.00822   0.00316  -0.2162  0.0013  0.0416  -1.9127   0.0000   0.3965
   4.500   1.4573   0.00846   0.00339  -0.2161  0.0013  0.0473  -2.0916   0.0000   0.3899
   5.500   1.5653   0.00898   0.00388  -0.2156  0.0013  0.0728  -2.4623   0.0000   0.3778
   6.000   1.6188   0.00925   0.00417  -0.2153  0.0012  0.1057  -2.6541   0.0000   0.3723
   6.500   1.6714   0.00955   0.00446  -0.2149  0.0012  0.1177  -2.8492   0.0000   0.3670
   7.500   1.7750   0.01021   0.00511  -0.2138  0.0012  0.1464  -3.2502   0.0000   0.3571
   8.000   1.8255   0.01058   0.00547  -0.2130  0.0012  0.1461  -3.4550   0.0000   0.3525
   8.500   1.8751   0.01097   0.00584  -0.2121  0.0012  0.1583  -3.6625   0.0000   0.3480
   9.000   1.9245   0.01136   0.00627  -0.2112  0.0012  0.2139  -3.9408   0.0000   0.3436
  10.500   2.0648   0.01274   0.00772  -0.2072  0.0011  0.3354  -5.5147   0.0000   0.3313
  12.500   2.1933   0.01551   0.01053  -0.1908  0.0010  0.3697  -7.8735   0.0000   0.3139
  14.500   2.2551   0.02303   0.01838  -0.1679  0.0016  0.4841  -10.0057   0.0000   0.2970
  15.000   2.2725   0.02532   0.02073  -0.1638  0.0020  0.5096  -10.6375   0.0000   0.2935
  15.500   2.2899   0.02782   0.02330  -0.1601  0.0025  0.5434  -11.2568   0.0000   0.2901
  16.000   2.3029   0.03086   0.02639  -0.1564  0.0029  0.5648  -11.8472   0.0000   0.2868
  16.500   2.3134   0.03431   0.02992  -0.1529  0.0033  0.5959  -12.4281   0.0000   0.2838
  17.000   2.3207   0.03822   0.03392  -0.1496  0.0037  0.6286  -12.9920   0.0000   0.2808
  17.500   2.3233   0.04267   0.03844  -0.1464  0.0042  0.6472  -13.5234   0.0000   0.2780
  18.000   2.3255   0.04767   0.04353  -0.1439  0.0044  0.6731  -14.0611   0.0000   0.2755
  18.500   2.3257   0.05322   0.04917  -0.1418  0.0046  0.6980  -14.5875   0.0000   0.2732
  19.000   2.3221   0.05951   0.05557  -0.1402  0.0046  0.7340  -15.0871   0.0000   0.2711
  19.500   2.3299   0.06451   0.06066  -0.1392  0.0046  0.7758  -15.7073   0.0000   0.2690


