XFLR5 v6.02 Beta

 Calculated polar for: WORTMANN FX 63-137

 1 1 Reynolds number fixed          Mach number fixed         

 xtrf =   1.000 (top)        1.000 (bottom)
 Mach =   0.000     Re =    62.750 e 6     Ncrit =   9.000

  alpha     CL        CD       CDp       CM    Top Xtr Bot Xtr   Cpmin    Chinge    XCp    
 ------- -------- --------- --------- -------- ------- ------- -------- --------- ---------
 -22.500  -1.2260   0.05926   0.05611  -0.1483  0.4234  0.0014  -27.8457   0.0000   0.0911
 -22.000  -1.2719   0.04740   0.04412  -0.1576  0.4149  0.0014  -28.3785   0.0000   0.0903
 -21.500  -1.2858   0.04001   0.03665  -0.1634  0.4171  0.0014  -28.2581   0.0000   0.0889
 -21.000  -1.3001   0.03293   0.02948  -0.1689  0.4135  0.0014  -28.1155   0.0000   0.0878
 -20.500  -1.2962   0.02825   0.02474  -0.1722  0.4099  0.0014  -27.6299   0.0000   0.0863
 -20.000  -1.2891   0.02386   0.02029  -0.1753  0.4059  0.0014  -27.0854   0.0000   0.0845
 -19.500  -1.2713   0.02073   0.01711  -0.1770  0.4023  0.0015  -26.3573   0.0000   0.0826
 -19.000  -1.2486   0.01793   0.01427  -0.1791  0.4017  0.0015  -25.5675   0.0000   0.0795
 -18.500  -1.2018   0.01556   0.01186  -0.1845  0.4011  0.0016  -24.4839   0.0000   0.0703
 -18.000  -1.1490   0.01407   0.01023  -0.1886  0.3383  0.0016  -23.3220   0.0000   0.0604
 -17.500  -1.0968   0.01320   0.00929  -0.1900  0.3133  0.0017  -22.1635   0.0000   0.0519
 -17.000  -1.0427   0.01243   0.00847  -0.1913  0.3027  0.0018  -21.0049   0.0000   0.0422
 -16.500  -0.9874   0.01175   0.00775  -0.1924  0.2955  0.0019  -19.8584   0.0000   0.0312
 -16.000  -0.9312   0.01114   0.00711  -0.1936  0.2886  0.0020  -18.7277   0.0000   0.0186
 -15.500  -0.8742   0.01057   0.00652  -0.1946  0.2842  0.0021  -17.6171   0.0000   0.0041
 -14.500  -0.7598   0.00965   0.00547  -0.1965  0.2255  0.0024  -15.4802   0.0000  -0.0316
 -14.000  -0.7013   0.00922   0.00501  -0.1975  0.2217  0.0025  -14.4441   0.0000  -0.0547
 -13.000  -0.5839   0.00849   0.00420  -0.1993  0.1932  0.0028  -12.6260   0.0000  -0.1152
 -11.000  -0.3460   0.00733   0.00290  -0.2029  0.1462  0.0038  -9.2830   0.0000  -0.3664
 -10.500  -0.2863   0.00714   0.00267  -0.2037  0.1412  0.0040  -8.5132   0.0000  -0.4951
 -10.000  -0.2266   0.00697   0.00248  -0.2045  0.1360  0.0040  -7.7726   0.0000  -0.6919
  -9.500  -0.1668   0.00682   0.00230  -0.2053  0.1308  0.0041  -7.0613   0.0000  -1.0306
  -9.000  -0.1070   0.00668   0.00215  -0.2061  0.1239  0.0041  -6.3798   0.0000  -1.7485
  -8.500  -0.0471   0.00656   0.00201  -0.2068  0.1237  0.0041  -5.7258   0.0000  -4.2926
  -8.000   0.0127   0.00645   0.00189  -0.2075  0.1234  0.0042  -5.1014   0.0000  17.0625
  -7.500   0.0726   0.00636   0.00178  -0.2083  0.1230  0.0042  -4.5068   0.0000   3.2056
  -7.000   0.1323   0.00628   0.00168  -0.2090  0.1228  0.0043  -4.0433   0.0000   1.8723
  -6.500   0.1915   0.00626   0.00163  -0.2095  0.1041  0.0043  -3.6532   0.0000   1.3716
  -6.000   0.2510   0.00622   0.00156  -0.2102  0.1005  0.0043  -3.2771   0.0000   1.1066
  -5.500   0.3104   0.00620   0.00151  -0.2108  0.0976  0.0044  -2.9164   0.0000   0.9433
  -5.000   0.3697   0.00618   0.00147  -0.2114  0.0951  0.0044  -2.5708   0.0000   0.8324
  -4.500   0.4290   0.00617   0.00145  -0.2119  0.0900  0.0045  -2.2406   0.0000   0.7523
  -4.000   0.4881   0.00618   0.00144  -0.2125  0.0843  0.0045  -1.9261   0.0000   0.6916
  -3.500   0.5472   0.00619   0.00144  -0.2131  0.0842  0.0045  -1.6275   0.0000   0.6441
  -3.000   0.6062   0.00620   0.00145  -0.2136  0.0841  0.0046  -1.3446   0.0000   0.6058
  -2.500   0.6649   0.00624   0.00147  -0.2141  0.0839  0.0046  -1.0771   0.0000   0.5743
  -2.000   0.7220   0.00640   0.00155  -0.2142  0.0507  0.0049  -0.9619   0.0000   0.5481
  -1.500   0.7801   0.00649   0.00161  -0.2146  0.0467  0.0058  -1.0122   0.0000   0.5256
  -1.000   0.8381   0.00657   0.00168  -0.2150  0.0441  0.0068  -1.0645   0.0000   0.5061
  -0.500   0.8960   0.00666   0.00175  -0.2153  0.0418  0.0075  -1.1171   0.0000   0.4892
   0.000   0.9537   0.00675   0.00183  -0.2157  0.0395  0.0080  -1.1700   0.0000   0.4743
   0.500   1.0113   0.00685   0.00193  -0.2160  0.0382  0.0099  -1.2250   0.0000   0.4610
   1.000   1.0688   0.00695   0.00202  -0.2163  0.0406  0.0170  -1.2901   0.0000   0.4491
   1.500   1.1258   0.00708   0.00214  -0.2165  0.0396  0.0171  -1.3658   0.0000   0.4383
   2.000   1.1824   0.00723   0.00227  -0.2167  0.0374  0.0210  -1.4420   0.0000   0.4285
   2.500   1.2354   0.00767   0.00262  -0.2161  0.0015  0.0372  -1.5306   0.0000   0.4195
   3.500   1.3464   0.00808   0.00299  -0.2160  0.0013  0.0393  -1.7642   0.0000   0.4036
   4.000   1.4013   0.00831   0.00320  -0.2159  0.0013  0.0422  -1.9103   0.0000   0.3965
   4.500   1.4558   0.00855   0.00343  -0.2158  0.0013  0.0480  -2.0890   0.0000   0.3898
   5.500   1.5637   0.00907   0.00393  -0.2153  0.0013  0.0740  -2.4594   0.0000   0.3777
   6.000   1.6171   0.00935   0.00422  -0.2150  0.0012  0.1083  -2.6509   0.0000   0.3722
   6.500   1.6697   0.00966   0.00452  -0.2146  0.0012  0.1203  -2.8458   0.0000   0.3669
   7.000   1.7219   0.00997   0.00484  -0.2141  0.0012  0.1457  -3.0446   0.0000   0.3619
   7.500   1.7731   0.01032   0.00518  -0.2134  0.0012  0.1473  -3.2461   0.0000   0.3570
   8.000   1.8234   0.01070   0.00554  -0.2126  0.0012  0.1465  -3.4505   0.0000   0.3524
   8.500   1.8730   0.01109   0.00592  -0.2117  0.0012  0.1650  -3.6578   0.0000   0.3479
   9.000   1.9223   0.01149   0.00636  -0.2108  0.0012  0.2205  -3.9344   0.0000   0.3436
   9.500   1.9701   0.01192   0.00681  -0.2096  0.0012  0.2494  -4.3108   0.0000   0.3393
  10.000   2.0171   0.01238   0.00731  -0.2083  0.0011  0.3127  -4.8944   0.0000   0.3352
  11.000   2.1039   0.01345   0.00841  -0.2044  0.0011  0.3693  -6.1119   0.0000   0.3271
  11.500   2.1298   0.01409   0.00906  -0.1989  0.0011  0.3701  -6.6513   0.0000   0.3224
  12.000   2.1587   0.01485   0.00983  -0.1942  0.0010  0.3702  -7.2315   0.0000   0.3179
  12.500   2.1882   0.01573   0.01072  -0.1899  0.0010  0.3752  -7.8373   0.0000   0.3137
  13.000   2.2172   0.01672   0.01178  -0.1858  0.0010  0.4357  -8.4593   0.0000   0.3097
  13.500   2.2442   0.01790   0.01301  -0.1816  0.0009  0.4714  -9.0888   0.0000   0.3057
  15.000   2.2668   0.02579   0.02120  -0.1632  0.0017  0.5308  -10.5592   0.0000   0.2934
  15.500   2.2847   0.02829   0.02375  -0.1596  0.0022  0.5637  -11.2118   0.0000   0.2901
  16.000   2.2979   0.03132   0.02684  -0.1560  0.0026  0.5886  -11.8050   0.0000   0.2868
  16.500   2.3089   0.03480   0.03042  -0.1526  0.0030  0.6274  -12.3892   0.0000   0.2838
  17.000   2.3147   0.03875   0.03443  -0.1492  0.0034  0.6452  -12.9401   0.0000   0.2808
  17.500   2.3175   0.04332   0.03909  -0.1462  0.0039  0.6669  -13.4713   0.0000   0.2781
  18.000   2.3193   0.04843   0.04429  -0.1437  0.0042  0.6923  -14.0033   0.0000   0.2756
  18.500   2.3190   0.05411   0.05007  -0.1417  0.0044  0.7259  -14.5243   0.0000   0.2733
  19.000   2.3159   0.06046   0.05653  -0.1403  0.0045  0.7704  -15.0261   0.0000   0.2713
  19.500   2.3110   0.06723   0.06342  -0.1393  0.0046  0.8078  -15.5156   0.0000   0.2695
  20.000   2.3153   0.07293   0.06923  -0.1389  0.0046  0.8565  -16.1064   0.0000   0.2677


