XFLR5 v6.02 Beta

 Calculated polar for: WORTMANN FX 63-137

 1 1 Reynolds number fixed          Mach number fixed         

 xtrf =   1.000 (top)        1.000 (bottom)
 Mach =   0.000     Re =    45.000 e 6     Ncrit =   9.000

  alpha     CL        CD       CDp       CM    Top Xtr Bot Xtr   Cpmin    Chinge    XCp    
 ------- -------- --------- --------- -------- ------- ------- -------- --------- ---------
 -21.000  -1.2380   0.04009   0.03673  -0.1622  0.4702  0.0017  -26.9799   0.0000   0.0857
 -20.000  -1.2477   0.02823   0.02470  -0.1712  0.4659  0.0018  -26.3670   0.0000   0.0827
 -19.500  -1.2397   0.02383   0.02025  -0.1745  0.4658  0.0018  -25.8252   0.0000   0.0806
 -19.000  -1.2242   0.02057   0.01694  -0.1760  0.4656  0.0019  -25.1454   0.0000   0.0789
 -18.000  -1.1485   0.01545   0.01162  -0.1848  0.4147  0.0020  -23.2458   0.0000   0.0635
 -17.500  -1.0966   0.01415   0.01018  -0.1880  0.3484  0.0021  -22.1153   0.0000   0.0537
 -17.000  -1.0432   0.01322   0.00920  -0.1896  0.3393  0.0022  -20.9724   0.0000   0.0439
 -16.500  -0.9885   0.01240   0.00835  -0.1910  0.3383  0.0023  -19.8364   0.0000   0.0329
 -15.000  -0.8193   0.01048   0.00630  -0.1945  0.3084  0.0027  -16.5363   0.0000  -0.0105
 -14.500  -0.7622   0.00999   0.00574  -0.1955  0.2772  0.0029  -15.4851   0.0000  -0.0295
 -14.000  -0.7048   0.00958   0.00523  -0.1963  0.2407  0.0031  -14.4613   0.0000  -0.0516
 -13.500  -0.6462   0.00918   0.00479  -0.1973  0.2228  0.0032  -13.5367   0.0000  -0.0786
 -13.000  -0.5871   0.00878   0.00437  -0.1983  0.2215  0.0034  -12.6357   0.0000  -0.1116
 -12.500  -0.5285   0.00848   0.00399  -0.1992  0.1902  0.0036  -11.7640   0.0000  -0.1513
 -12.000  -0.4693   0.00819   0.00366  -0.2001  0.1699  0.0038  -10.9123   0.0000  -0.2019
 -11.500  -0.4097   0.00792   0.00336  -0.2010  0.1700  0.0039  -10.0832   0.0000  -0.2677
 -11.000  -0.3500   0.00768   0.00310  -0.2018  0.1696  0.0039  -9.2858   0.0000  -0.3562
 -10.500  -0.2902   0.00747   0.00287  -0.2027  0.1690  0.0040  -8.5167   0.0000  -0.4814
  -9.500  -0.1712   0.00716   0.00247  -0.2042  0.1420  0.0041  -7.0704   0.0000  -0.9911
  -9.000  -0.1115   0.00702   0.00230  -0.2049  0.1318  0.0041  -6.3912   0.0000  -1.6567
  -8.500  -0.0517   0.00689   0.00215  -0.2057  0.1266  0.0041  -5.7378   0.0000  -3.8701
  -8.000   0.0082   0.00678   0.00201  -0.2064  0.1240  0.0042  -5.1138   0.0000  26.2508
  -7.500   0.0680   0.00668   0.00189  -0.2072  0.1237  0.0042  -4.5194   0.0000   3.3861
  -7.000   0.1278   0.00659   0.00179  -0.2079  0.1235  0.0043  -4.0489   0.0000   1.9211
  -6.500   0.1876   0.00652   0.00171  -0.2086  0.1232  0.0043  -3.6574   0.0000   1.3902
  -6.000   0.2472   0.00646   0.00164  -0.2093  0.1227  0.0043  -3.2812   0.0000   1.1160
  -5.500   0.3062   0.00647   0.00160  -0.2098  0.1057  0.0044  -2.9225   0.0000   0.9496
  -5.000   0.3654   0.00646   0.00156  -0.2104  0.1006  0.0044  -2.5771   0.0000   0.8365
  -4.500   0.4246   0.00646   0.00153  -0.2109  0.0978  0.0045  -2.2478   0.0000   0.7551
  -4.000   0.4836   0.00647   0.00152  -0.2115  0.0891  0.0045  -1.9343   0.0000   0.6937
  -3.500   0.5426   0.00648   0.00152  -0.2120  0.0852  0.0046  -1.6359   0.0000   0.6455
  -3.000   0.6015   0.00650   0.00153  -0.2125  0.0843  0.0049  -1.3531   0.0000   0.6068
  -2.500   0.6602   0.00653   0.00155  -0.2130  0.0841  0.0047  -1.0853   0.0000   0.5750
  -2.000   0.7188   0.00657   0.00158  -0.2135  0.0837  0.0056  -0.9601   0.0000   0.5484
  -1.500   0.7757   0.00676   0.00168  -0.2136  0.0551  0.0068  -1.0093   0.0000   0.5259
  -1.000   0.8337   0.00684   0.00175  -0.2140  0.0503  0.0078  -1.0615   0.0000   0.5064
  -0.500   0.8913   0.00695   0.00183  -0.2143  0.0475  0.0087  -1.1139   0.0000   0.4893
   0.000   0.9488   0.00706   0.00193  -0.2146  0.0448  0.0094  -1.1665   0.0000   0.4743
   0.500   1.0063   0.00717   0.00202  -0.2149  0.0423  0.0157  -1.2211   0.0000   0.4610
   1.000   1.0637   0.00727   0.00212  -0.2152  0.0450  0.0170  -1.2856   0.0000   0.4490
   1.500   1.1205   0.00741   0.00225  -0.2154  0.0437  0.0172  -1.3611   0.0000   0.4382
   2.000   1.1771   0.00755   0.00238  -0.2156  0.0419  0.0194  -1.4373   0.0000   0.4284
   2.500   1.2297   0.00804   0.00276  -0.2149  0.0022  0.0373  -1.5246   0.0000   0.4193
   3.500   1.3403   0.00847   0.00315  -0.2148  0.0014  0.0416  -1.7563   0.0000   0.4034
   4.000   1.3950   0.00871   0.00338  -0.2146  0.0015  0.0449  -1.8994   0.0000   0.3963
   4.500   1.4493   0.00896   0.00362  -0.2145  0.0013  0.0515  -2.0773   0.0000   0.3896
   5.000   1.5033   0.00922   0.00388  -0.2142  0.0013  0.0669  -2.2596   0.0000   0.3834
   5.500   1.5566   0.00951   0.00415  -0.2139  0.0013  0.0797  -2.4458   0.0000   0.3775
   6.000   1.6097   0.00980   0.00446  -0.2135  0.0012  0.1200  -2.6365   0.0000   0.3719
   6.500   1.6622   0.01011   0.00479  -0.2131  0.0012  0.1458  -2.8307   0.0000   0.3666
   7.000   1.7136   0.01046   0.00512  -0.2124  0.0012  0.1555  -3.0276   0.0000   0.3615
   7.500   1.7644   0.01083   0.00548  -0.2117  0.0012  0.1695  -3.2280   0.0000   0.3567
   8.000   1.8140   0.01123   0.00587  -0.2108  0.0012  0.1659  -3.4305   0.0000   0.3520
   8.500   1.8634   0.01163   0.00629  -0.2098  0.0012  0.2133  -3.6367   0.0000   0.3475
   9.000   1.9119   0.01206   0.00676  -0.2088  0.0012  0.2622  -3.9042   0.0000   0.3431
   9.500   1.9591   0.01251   0.00725  -0.2075  0.0012  0.3073  -4.2478   0.0000   0.3389
  10.000   2.0055   0.01300   0.00780  -0.2062  0.0011  0.3889  -4.8236   0.0000   0.3348
  10.500   2.0482   0.01356   0.00837  -0.2041  0.0011  0.4018  -5.4090   0.0000   0.3307
  11.000   2.0782   0.01418   0.00903  -0.1994  0.0011  0.4326  -5.9472   0.0000   0.3260
  11.500   2.1073   0.01492   0.00978  -0.1947  0.0011  0.4334  -6.5015   0.0000   0.3215
  12.000   2.1369   0.01578   0.01065  -0.1904  0.0010  0.4338  -7.0804   0.0000   0.3171
  13.000   2.1937   0.01790   0.01287  -0.1820  0.0010  0.5030  -8.2840   0.0000   0.3089
  13.500   2.2194   0.01923   0.01422  -0.1778  0.0009  0.5158  -8.8976   0.0000   0.3050
  14.000   2.2431   0.02079   0.01582  -0.1737  0.0009  0.5425  -9.5149   0.0000   0.3011
  15.000   2.2827   0.02479   0.01997  -0.1655  0.0008  0.6287  -10.7429   0.0000   0.2939
  16.000   2.2663   0.03431   0.02977  -0.1536  0.0011  0.6839  -11.5091   0.0000   0.2867
  16.500   2.2747   0.03813   0.03372  -0.1504  0.0017  0.7047  -12.0465   0.0000   0.2837
  17.000   2.2806   0.04239   0.03806  -0.1475  0.0020  0.7432  -12.6309   0.0000   0.2810
  17.500   2.2861   0.04716   0.04294  -0.1452  0.0023  0.7838  -13.1897   0.0000   0.2785
  18.000   2.2883   0.05277   0.04868  -0.1435  0.0029  0.8443  -13.7200   0.0000   0.2762
  18.500   2.2924   0.05927   0.05543  -0.1433  0.0032  1.0000  -14.2761   0.0000   0.2745
  19.000   2.2966   0.06457   0.06079  -0.1419  0.0036  1.0000  -14.8421   0.0000   0.2724
  19.500   2.2868   0.07191   0.06822  -0.1409  0.0038  1.0000  -15.2771   0.0000   0.2707


