XFLR5 v6.02 Beta

 Calculated polar for: WORTMANN FX 63-137

 1 1 Reynolds number fixed          Mach number fixed         

 xtrf =   1.000 (top)        1.000 (bottom)
 Mach =   0.000     Re =    30.000 e 6     Ncrit =   9.000

  alpha     CL        CD       CDp       CM    Top Xtr Bot Xtr   Cpmin    Chinge    XCp    
 ------- -------- --------- --------- -------- ------- ------- -------- --------- ---------
 -21.500  -1.0872   0.06624   0.06326  -0.1400  0.5676  0.0022  -24.4104   0.0000   0.0840
 -21.000  -1.1624   0.04972   0.04660  -0.1530  0.5955  0.0022  -25.5488   0.0000   0.0839
 -20.000  -1.2037   0.03304   0.02960  -0.1666  0.5501  0.0023  -25.5852   0.0000   0.0808
 -19.500  -1.2001   0.02816   0.02464  -0.1702  0.5326  0.0023  -25.1363   0.0000   0.0789
 -19.000  -1.1918   0.02372   0.02013  -0.1735  0.5314  0.0024  -24.6054   0.0000   0.0765
 -18.000  -1.1436   0.01745   0.01375  -0.1795  0.5304  0.0026  -23.0809   0.0000   0.0674
 -17.500  -1.0937   0.01513   0.01125  -0.1857  0.4661  0.0027  -22.0187   0.0000   0.0552
 -17.000  -1.0437   0.01404   0.00999  -0.1877  0.4021  0.0028  -20.9279   0.0000   0.0458
 -16.500  -0.9896   0.01308   0.00898  -0.1894  0.4008  0.0029  -19.8066   0.0000   0.0348
 -16.000  -0.9342   0.01225   0.00812  -0.1909  0.4005  0.0031  -18.6927   0.0000   0.0222
 -15.500  -0.8790   0.01159   0.00737  -0.1920  0.3693  0.0033  -17.6056   0.0000   0.0084
 -15.000  -0.8223   0.01100   0.00672  -0.1931  0.3599  0.0034  -16.5290   0.0000  -0.0078
 -14.500  -0.7649   0.01048   0.00615  -0.1942  0.3403  0.0035  -15.4733   0.0000  -0.0267
 -14.000  -0.7086   0.01011   0.00564  -0.1949  0.2811  0.0036  -14.4578   0.0000  -0.0480
 -13.500  -0.6500   0.00968   0.00518  -0.1959  0.2772  0.0037  -13.5096   0.0000  -0.0745
 -13.000  -0.5920   0.00935   0.00476  -0.1967  0.2484  0.0037  -12.6155   0.0000  -0.1059
 -12.500  -0.5332   0.00902   0.00438  -0.1976  0.2398  0.0038  -11.7423   0.0000  -0.1449
 -12.000  -0.4748   0.00876   0.00404  -0.1984  0.1940  0.0038  -10.8996   0.0000  -0.1931
 -11.500  -0.4145   0.00842   0.00371  -0.1994  0.2205  0.0039  -10.0651   0.0000  -0.2580
 -11.000  -0.3559   0.00824   0.00343  -0.2001  0.1840  0.0040  -9.2774   0.0000  -0.3413
 -10.500  -0.2963   0.00800   0.00316  -0.2010  0.1767  0.0040  -8.5099   0.0000  -0.4609
 -10.000  -0.2364   0.00779   0.00292  -0.2019  0.1702  0.0040  -7.7710   0.0000  -0.6415
  -9.500  -0.1765   0.00759   0.00270  -0.2027  0.1695  0.0041  -7.0626   0.0000  -0.9452
  -8.500  -0.0575   0.00733   0.00234  -0.2042  0.1417  0.0041  -5.7399   0.0000  -3.4273
  -8.000   0.0023   0.00721   0.00219  -0.2050  0.1364  0.0042  -5.1189   0.0000  94.2077
  -7.500   0.0621   0.00710   0.00205  -0.2057  0.1313  0.0042  -4.5268   0.0000   3.6640
  -7.000   0.1219   0.00700   0.00194  -0.2065  0.1277  0.0043  -4.0506   0.0000   1.9910
  -6.500   0.1816   0.00692   0.00184  -0.2072  0.1241  0.0043  -3.6611   0.0000   1.4197
  -6.000   0.2413   0.00686   0.00176  -0.2079  0.1237  0.0043  -3.2866   0.0000   1.1315
  -5.500   0.3009   0.00681   0.00170  -0.2085  0.1234  0.0044  -2.9270   0.0000   0.9577
  -5.000   0.3604   0.00677   0.00165  -0.2092  0.1229  0.0044  -2.5806   0.0000   0.8415
  -4.500   0.4197   0.00675   0.00161  -0.2098  0.1222  0.0045  -2.2529   0.0000   0.7582
  -4.000   0.4781   0.00681   0.00162  -0.2102  0.1021  0.0045  -1.9424   0.0000   0.6961
  -3.500   0.5366   0.00686   0.00162  -0.2107  0.0919  0.0046  -1.6459   0.0000   0.6474
  -3.000   0.5954   0.00689   0.00163  -0.2112  0.0887  0.0057  -1.3637   0.0000   0.6082
  -2.500   0.6541   0.00692   0.00165  -0.2117  0.0857  0.0059  -1.0960   0.0000   0.5760
  -2.000   0.7127   0.00696   0.00168  -0.2122  0.0842  0.0067  -0.9562   0.0000   0.5491
  -1.000   0.8291   0.00709   0.00179  -0.2130  0.0823  0.0095  -1.0586   0.0000   0.5066
  -0.500   0.8857   0.00729   0.00192  -0.2131  0.0607  0.0150  -1.1099   0.0000   0.4895
   0.000   0.9430   0.00741   0.00202  -0.2134  0.0515  0.0154  -1.1624   0.0000   0.4744
   0.500   1.0001   0.00754   0.00213  -0.2136  0.0494  0.0159  -1.2163   0.0000   0.4610
   1.000   1.0574   0.00765   0.00223  -0.2139  0.0510  0.0171  -1.2803   0.0000   0.4490
   1.500   1.1143   0.00778   0.00236  -0.2141  0.0508  0.0173  -1.3556   0.0000   0.4381
   2.000   1.1704   0.00796   0.00252  -0.2142  0.0477  0.0210  -1.4313   0.0000   0.4283
   2.500   1.2222   0.00851   0.00294  -0.2133  0.0032  0.0375  -1.5167   0.0000   0.4191
   3.000   1.2774   0.00873   0.00315  -0.2133  0.0024  0.0383  -1.6289   0.0000   0.4108
   3.500   1.3322   0.00897   0.00337  -0.2131  0.0019  0.0452  -1.7459   0.0000   0.4031
   4.000   1.3866   0.00922   0.00361  -0.2130  0.0023  0.0488  -1.8851   0.0000   0.3960
   5.500   1.5474   0.01007   0.00445  -0.2121  0.0013  0.1020  -2.4283   0.0000   0.3771
   6.000   1.6002   0.01038   0.00479  -0.2117  0.0012  0.1465  -2.6178   0.0000   0.3715
   6.500   1.6519   0.01072   0.00513  -0.2111  0.0012  0.1659  -2.8101   0.0000   0.3662
   7.000   1.7032   0.01108   0.00551  -0.2104  0.0012  0.1953  -3.0061   0.0000   0.3611
   7.500   1.7531   0.01148   0.00590  -0.2095  0.0012  0.2122  -3.2042   0.0000   0.3562
   8.000   1.8017   0.01191   0.00632  -0.2084  0.0012  0.2073  -3.4041   0.0000   0.3515
   8.500   1.8519   0.01231   0.00681  -0.2077  0.0012  0.3086  -3.6108   0.0000   0.3471
   9.000   1.8985   0.01279   0.00731  -0.2063  0.0012  0.3330  -3.8652   0.0000   0.3426
   9.500   1.9440   0.01330   0.00785  -0.2047  0.0011  0.3689  -4.1606   0.0000   0.3383
  10.000   1.9891   0.01383   0.00848  -0.2032  0.0011  0.4643  -4.7243   0.0000   0.3342
  10.500   2.0192   0.01447   0.00914  -0.1985  0.0011  0.4723  -5.2317   0.0000   0.3294
  11.000   2.0500   0.01521   0.00990  -0.1941  0.0011  0.4925  -5.7646   0.0000   0.3248
  11.500   2.0803   0.01608   0.01079  -0.1899  0.0011  0.5023  -6.3195   0.0000   0.3204
  12.000   2.1095   0.01707   0.01183  -0.1858  0.0010  0.5308  -6.8888   0.0000   0.3162
  12.500   2.1367   0.01824   0.01302  -0.1815  0.0010  0.5429  -7.4662   0.0000   0.3120
  13.000   2.1635   0.01956   0.01440  -0.1775  0.0010  0.5657  -8.0595   0.0000   0.3080
  13.500   2.1888   0.02112   0.01603  -0.1737  0.0009  0.6220  -8.6610   0.0000   0.3042
  14.000   2.2090   0.02298   0.01796  -0.1694  0.0009  0.6540  -9.2440   0.0000   0.3004
  14.500   2.2292   0.02511   0.02017  -0.1655  0.0009  0.6902  -9.8437   0.0000   0.2968
  15.000   2.2480   0.02753   0.02265  -0.1619  0.0009  0.7198  -10.4487   0.0000   0.2934
  15.500   2.2653   0.03030   0.02550  -0.1586  0.0008  0.7661  -11.0576   0.0000   0.2902
  16.000   2.2818   0.03341   0.02872  -0.1558  0.0008  0.8279  -11.6755   0.0000   0.2872
  16.500   2.3000   0.03695   0.03250  -0.1541  0.0008  1.0000  -12.3244   0.0000   0.2845
  17.000   2.3075   0.04090   0.03651  -0.1510  0.0007  1.0000  -12.8941   0.0000   0.2817
  19.000   2.2425   0.07121   0.06734  -0.1408  0.0018  1.0000  -14.3024   0.0000   0.2733
  19.500   2.2361   0.07829   0.07452  -0.1404  0.0021  1.0000  -14.7718   0.0000   0.2718


