XFLR5 v6.02 Beta

 Calculated polar for: WORTMANN FX 63-137

 1 1 Reynolds number fixed          Mach number fixed         

 xtrf =   1.000 (top)        1.000 (bottom)
 Mach =   0.000     Re =    23.750 e 6     Ncrit =   9.000

  alpha     CL        CD       CDp       CM    Top Xtr Bot Xtr   Cpmin    Chinge    XCp    
 ------- -------- --------- --------- -------- ------- ------- -------- --------- ---------
 -21.000  -1.1233   0.05529   0.05235  -0.1475  0.6607  0.0026  -24.7695   0.0000   0.0836
 -20.500  -1.1604   0.04417   0.04109  -0.1565  0.6595  0.0026  -25.1414   0.0000   0.0821
 -19.500  -1.1843   0.02979   0.02638  -0.1686  0.6078  0.0027  -24.8499   0.0000   0.0781
 -18.500  -1.1615   0.02159   0.01803  -0.1745  0.5948  0.0028  -23.7002   0.0000   0.0729
 -18.000  -1.1390   0.01862   0.01494  -0.1770  0.5635  0.0029  -22.9614   0.0000   0.0688
 -17.500  -1.0933   0.01608   0.01230  -0.1826  0.5482  0.0030  -21.9512   0.0000   0.0580
 -17.000  -1.0421   0.01455   0.01056  -0.1866  0.4676  0.0032  -20.8670   0.0000   0.0466
 -16.500  -0.9900   0.01361   0.00950  -0.1882  0.4344  0.0033  -19.7680   0.0000   0.0360
 -16.000  -0.9357   0.01281   0.00862  -0.1896  0.4217  0.0034  -18.6656   0.0000   0.0239
 -15.500  -0.8799   0.01210   0.00786  -0.1909  0.4121  0.0035  -17.5716   0.0000   0.0099
 -15.000  -0.8231   0.01147   0.00719  -0.1921  0.4020  0.0036  -16.4940   0.0000  -0.0063
 -14.500  -0.7656   0.01091   0.00658  -0.1933  0.4004  0.0036  -15.4382   0.0000  -0.0253
 -13.500  -0.6533   0.01018   0.00556  -0.1946  0.2882  0.0037  -13.4768   0.0000  -0.0710
 -13.000  -0.5946   0.00976   0.00511  -0.1957  0.2785  0.0038  -12.5774   0.0000  -0.1026
 -12.500  -0.5355   0.00938   0.00469  -0.1967  0.2771  0.0038  -11.7020   0.0000  -0.1414
 -12.000  -0.4777   0.00913   0.00432  -0.1974  0.2354  0.0039  -10.8630   0.0000  -0.1883
 -11.500  -0.4180   0.00880   0.00398  -0.1984  0.2417  0.0039  -10.0265   0.0000  -0.2512
 -10.500  -0.2999   0.00834   0.00339  -0.2000  0.1919  0.0040  -8.4684   0.0000  -0.4489
 -10.000  -0.2403   0.00813   0.00312  -0.2008  0.1836  0.0040  -7.7308   0.0000  -0.6227
  -9.500  -0.1805   0.00792   0.00288  -0.2017  0.1751  0.0041  -7.0264   0.0000  -0.9135
  -9.000  -0.1205   0.00772   0.00265  -0.2026  0.1694  0.0041  -6.3613   0.0000  -1.4953
  -8.500  -0.0605   0.00756   0.00246  -0.2034  0.1685  0.0042  -5.7130   0.0000  -3.2300
  -8.000  -0.0012   0.00746   0.00230  -0.2041  0.1462  0.0042  -5.0996   0.0000  -177.8025
  -7.500   0.0585   0.00735   0.00216  -0.2048  0.1407  0.0042  -4.5137   0.0000   3.8571
  -7.000   0.1182   0.00726   0.00203  -0.2056  0.1367  0.0043  -4.0414   0.0000   2.0374
  -6.500   0.1779   0.00717   0.00192  -0.2063  0.1322  0.0043  -3.6563   0.0000   1.4388
  -6.000   0.2376   0.00710   0.00184  -0.2070  0.1270  0.0043  -3.2852   0.0000   1.1414
  -5.500   0.2972   0.00705   0.00177  -0.2077  0.1240  0.0044  -2.9261   0.0000   0.9635
  -5.000   0.3567   0.00701   0.00171  -0.2084  0.1236  0.0044  -2.5819   0.0000   0.8451
  -4.500   0.4161   0.00698   0.00167  -0.2090  0.1231  0.0045  -2.2564   0.0000   0.7607
  -4.000   0.4753   0.00697   0.00165  -0.2096  0.1226  0.0045  -1.9444   0.0000   0.6973
  -2.500   0.6504   0.00715   0.00171  -0.2109  0.0898  0.0071  -1.1014   0.0000   0.5766
  -2.000   0.7089   0.00720   0.00174  -0.2113  0.0847  0.0076  -0.9538   0.0000   0.5495
  -1.500   0.7673   0.00725   0.00179  -0.2118  0.0841  0.0091  -1.0037   0.0000   0.5265
  -1.000   0.8256   0.00731   0.00185  -0.2122  0.0833  0.0148  -1.0561   0.0000   0.5068
  -0.500   0.8834   0.00740   0.00193  -0.2126  0.0824  0.0153  -1.1085   0.0000   0.4895
   0.000   0.9395   0.00762   0.00208  -0.2126  0.0636  0.0156  -1.1600   0.0000   0.4744
   0.500   0.9962   0.00778   0.00220  -0.2128  0.0534  0.0160  -1.2133   0.0000   0.4610
   1.000   1.0535   0.00789   0.00231  -0.2131  0.0600  0.0171  -1.2769   0.0000   0.4489
   1.500   1.1102   0.00803   0.00244  -0.2132  0.0576  0.0174  -1.3521   0.0000   0.4381
   2.000   1.1665   0.00819   0.00258  -0.2134  0.0515  0.0222  -1.4278   0.0000   0.4282
   2.500   1.2176   0.00879   0.00305  -0.2124  0.0040  0.0377  -1.5120   0.0000   0.4190
   3.000   1.2726   0.00903   0.00327  -0.2123  0.0030  0.0385  -1.6229   0.0000   0.4107
   3.500   1.3272   0.00928   0.00350  -0.2121  0.0024  0.0475  -1.7394   0.0000   0.4030
   4.000   1.3815   0.00954   0.00376  -0.2119  0.0029  0.0514  -1.8761   0.0000   0.3958
   4.500   1.4354   0.00982   0.00403  -0.2117  0.0023  0.0667  -2.0527   0.0000   0.3891
   5.000   1.4885   0.01012   0.00431  -0.2113  0.0016  0.0763  -2.2327   0.0000   0.3828
   5.500   1.5415   0.01042   0.00463  -0.2109  0.0013  0.1032  -2.4172   0.0000   0.3769
   6.500   1.6460   0.01108   0.00536  -0.2100  0.0012  0.1953  -2.7980   0.0000   0.3660
   7.000   1.6966   0.01147   0.00575  -0.2092  0.0012  0.2189  -2.9926   0.0000   0.3609
   7.500   1.7467   0.01187   0.00617  -0.2084  0.0012  0.2550  -3.1904   0.0000   0.3560
   8.000   1.7947   0.01232   0.00661  -0.2071  0.0012  0.2490  -3.3887   0.0000   0.3512
   8.500   1.8448   0.01272   0.00714  -0.2065  0.0012  0.3689  -3.5950   0.0000   0.3468
   9.000   1.8902   0.01325   0.00766  -0.2048  0.0012  0.3819  -3.8409   0.0000   0.3423
   9.500   1.9343   0.01379   0.00824  -0.2029  0.0011  0.4130  -4.1122   0.0000   0.3380
  10.000   1.9726   0.01436   0.00891  -0.2000  0.0011  0.4982  -4.6282   0.0000   0.3335
  10.500   2.0031   0.01507   0.00963  -0.1955  0.0011  0.4999  -5.1332   0.0000   0.3287
  11.000   2.0336   0.01589   0.01047  -0.1912  0.0011  0.5149  -5.6595   0.0000   0.3242
  11.500   2.0645   0.01682   0.01145  -0.1872  0.0011  0.5430  -6.2099   0.0000   0.3199
  12.000   2.0920   0.01793   0.01260  -0.1829  0.0010  0.5643  -6.7669   0.0000   0.3156
  12.500   2.1191   0.01921   0.01393  -0.1788  0.0010  0.5912  -7.3392   0.0000   0.3115
  13.000   2.1454   0.02067   0.01546  -0.1750  0.0010  0.6294  -7.9235   0.0000   0.3076
  13.500   2.1693   0.02235   0.01722  -0.1711  0.0009  0.6773  -8.5108   0.0000   0.3038
  14.000   2.1901   0.02433   0.01926  -0.1671  0.0009  0.7032  -9.0931   0.0000   0.3001
  14.500   2.2105   0.02662   0.02163  -0.1636  0.0009  0.7470  -9.6893   0.0000   0.2966
  15.500   2.2532   0.03204   0.02742  -0.1585  0.0008  1.0000  -10.9463   0.0000   0.2904
  16.000   2.2661   0.03536   0.03079  -0.1552  0.0008  1.0000  -11.5304   0.0000   0.2874
  16.500   2.2766   0.03902   0.03450  -0.1522  0.0008  1.0000  -12.1079   0.0000   0.2844
  17.000   2.2829   0.04324   0.03878  -0.1493  0.0008  1.0000  -12.6607   0.0000   0.2816
  17.500   2.2874   0.04802   0.04363  -0.1468  0.0007  1.0000  -13.2080   0.0000   0.2790
  18.000   2.2891   0.05337   0.04904  -0.1446  0.0007  1.0000  -13.7412   0.0000   0.2767
  18.500   2.2877   0.05933   0.05509  -0.1429  0.0006  1.0000  -14.2513   0.0000   0.2745
  19.000   2.2947   0.06424   0.06005  -0.1415  0.0006  1.0000  -14.8513   0.0000   0.2723


