XFLR5 v6.02 Beta

 Calculated polar for: WORTMANN FX 63-137

 1 1 Reynolds number fixed          Mach number fixed         

 xtrf =   1.000 (top)        1.000 (bottom)
 Mach =   0.000     Re =    21.500 e 6     Ncrit =   9.000

  alpha     CL        CD       CDp       CM    Top Xtr Bot Xtr   Cpmin    Chinge    XCp    
 ------- -------- --------- --------- -------- ------- ------- -------- --------- ---------
 -21.000  -1.1116   0.05713   0.05428  -0.1454  0.6962  0.0027  -24.5195   0.0000   0.0839
 -20.500  -1.1515   0.04547   0.04244  -0.1550  0.6865  0.0028  -24.9574   0.0000   0.0822
 -20.000  -1.1702   0.03696   0.03377  -0.1624  0.6683  0.0028  -24.9600   0.0000   0.0799
 -19.000  -1.1679   0.02622   0.02274  -0.1711  0.6158  0.0029  -24.1826   0.0000   0.0752
 -18.500  -1.1533   0.02252   0.01896  -0.1736  0.5978  0.0030  -23.5559   0.0000   0.0725
 -18.000  -1.1340   0.01932   0.01569  -0.1759  0.5958  0.0031  -22.8601   0.0000   0.0690
 -17.000  -1.0390   0.01481   0.01091  -0.1863  0.5301  0.0033  -20.8035   0.0000   0.0463
 -16.500  -0.9890   0.01391   0.00983  -0.1877  0.4656  0.0034  -19.7298   0.0000   0.0364
 -16.000  -0.9341   0.01304   0.00892  -0.1893  0.4650  0.0035  -18.6229   0.0000   0.0239
 -15.500  -0.8797   0.01237   0.00815  -0.1904  0.4329  0.0035  -17.5444   0.0000   0.0105
 -15.000  -0.8238   0.01176   0.00746  -0.1915  0.4200  0.0036  -16.4769   0.0000  -0.0054
 -14.500  -0.7667   0.01119   0.00684  -0.1926  0.4063  0.0036  -15.4263   0.0000  -0.0241
 -14.000  -0.7112   0.01079   0.00628  -0.1933  0.3481  0.0037  -14.4208   0.0000  -0.0447
 -13.500  -0.6543   0.01040   0.00576  -0.1941  0.3020  0.0037  -13.4477   0.0000  -0.0697
 -13.000  -0.5961   0.00999   0.00529  -0.1951  0.2893  0.0038  -12.5510   0.0000  -0.1007
 -12.500  -0.5371   0.00959   0.00486  -0.1961  0.2787  0.0038  -11.6750   0.0000  -0.1392
 -12.000  -0.4779   0.00923   0.00446  -0.1971  0.2768  0.0039  -10.8224   0.0000  -0.1875
 -11.500  -0.4185   0.00892   0.00411  -0.1981  0.2768  0.0039  -9.9789   0.0000  -0.2499
 -11.000  -0.3606   0.00874   0.00381  -0.1987  0.2232  0.0040  -9.1895   0.0000  -0.3297
 -10.000  -0.2420   0.00830   0.00324  -0.2003  0.1905  0.0041  -7.6764   0.0000  -0.6145
  -9.500  -0.1824   0.00809   0.00299  -0.2012  0.1817  0.0041  -6.9734   0.0000  -0.8985
  -9.000  -0.1223   0.00788   0.00274  -0.2021  0.1700  0.0041  -6.3246   0.0000  -1.4648
  -8.500  -0.0623   0.00770   0.00253  -0.2030  0.1692  0.0042  -5.6787   0.0000  -3.1207
  -8.000  -0.0023   0.00754   0.00235  -0.2038  0.1683  0.0042  -5.0668   0.0000  -91.0010
  -7.500   0.0570   0.00746   0.00221  -0.2045  0.1450  0.0042  -4.4911   0.0000   3.9477
  -7.000   0.1166   0.00737   0.00208  -0.2052  0.1409  0.0043  -4.0262   0.0000   2.0584
  -6.500   0.1763   0.00728   0.00196  -0.2059  0.1363  0.0043  -3.6484   0.0000   1.4475
  -6.000   0.2360   0.00721   0.00187  -0.2066  0.1311  0.0043  -3.2816   0.0000   1.1458
  -5.500   0.2956   0.00715   0.00180  -0.2073  0.1257  0.0044  -2.9225   0.0000   0.9661
  -5.000   0.3551   0.00711   0.00174  -0.2080  0.1239  0.0044  -2.5807   0.0000   0.8468
  -4.500   0.4145   0.00708   0.00170  -0.2086  0.1234  0.0045  -2.2574   0.0000   0.7617
  -3.000   0.5902   0.00722   0.00172  -0.2100  0.0951  0.0067  -1.3717   0.0000   0.6094
  -2.500   0.6488   0.00726   0.00174  -0.2105  0.0917  0.0076  -1.1036   0.0000   0.5769
  -2.000   0.7072   0.00731   0.00177  -0.2110  0.0861  0.0079  -0.9528   0.0000   0.5497
  -1.500   0.7656   0.00736   0.00182  -0.2114  0.0843  0.0096  -1.0026   0.0000   0.5267
  -1.000   0.8239   0.00742   0.00188  -0.2119  0.0836  0.0150  -1.0549   0.0000   0.5068
  -0.500   0.8817   0.00750   0.00196  -0.2122  0.0828  0.0154  -1.1073   0.0000   0.4896
   0.000   0.9392   0.00760   0.00205  -0.2125  0.0819  0.0157  -1.1599   0.0000   0.4744
   0.500   0.9945   0.00789   0.00223  -0.2124  0.0584  0.0160  -1.2120   0.0000   0.4610
   1.000   1.0525   0.00793   0.00231  -0.2128  0.0666  0.0171  -1.2760   0.0000   0.4489
   1.500   1.1086   0.00812   0.00246  -0.2129  0.0625  0.0176  -1.3506   0.0000   0.4380
   2.000   1.1646   0.00830   0.00262  -0.2130  0.0533  0.0227  -1.4261   0.0000   0.4282
   2.500   1.2156   0.00892   0.00310  -0.2120  0.0043  0.0377  -1.5099   0.0000   0.4190
   3.000   1.2704   0.00917   0.00332  -0.2119  0.0032  0.0391  -1.6202   0.0000   0.4106
   3.500   1.3250   0.00942   0.00356  -0.2117  0.0026  0.0485  -1.7366   0.0000   0.4029
   4.500   1.4330   0.00996   0.00409  -0.2112  0.0025  0.0670  -2.0484   0.0000   0.3890
   5.000   1.4860   0.01027   0.00439  -0.2108  0.0018  0.0788  -2.2282   0.0000   0.3827
   5.500   1.5388   0.01058   0.00471  -0.2104  0.0014  0.1040  -2.4123   0.0000   0.3768
   6.000   1.5918   0.01089   0.00509  -0.2100  0.0013  0.1797  -2.6013   0.0000   0.3712
   6.500   1.6432   0.01125   0.00545  -0.2094  0.0012  0.2033  -2.7923   0.0000   0.3659
   7.000   1.6943   0.01162   0.00586  -0.2088  0.0012  0.2485  -2.9875   0.0000   0.3608
   7.500   1.7448   0.01201   0.00630  -0.2081  0.0012  0.3066  -3.1860   0.0000   0.3560
   8.000   1.7911   0.01251   0.00674  -0.2064  0.0012  0.2605  -3.3812   0.0000   0.3511
   8.500   1.8410   0.01292   0.00728  -0.2058  0.0012  0.3801  -3.5868   0.0000   0.3467
  10.000   1.9647   0.01461   0.00910  -0.1985  0.0011  0.5001  -4.5823   0.0000   0.3331
  10.500   1.9956   0.01535   0.00986  -0.1941  0.0011  0.5120  -5.0874   0.0000   0.3284
  11.000   2.0267   0.01620   0.01074  -0.1900  0.0011  0.5306  -5.6149   0.0000   0.3239
  11.500   2.0570   0.01717   0.01177  -0.1860  0.0011  0.5623  -6.1593   0.0000   0.3196
  12.000   2.0845   0.01832   0.01295  -0.1817  0.0010  0.5814  -6.7132   0.0000   0.3153
  12.500   2.1126   0.01963   0.01434  -0.1779  0.0010  0.6248  -7.2911   0.0000   0.3113
  13.000   2.1383   0.02113   0.01590  -0.1741  0.0010  0.6563  -7.8703   0.0000   0.3074
  13.500   2.1602   0.02293   0.01777  -0.1699  0.0009  0.6910  -8.4404   0.0000   0.3036
  14.000   2.1799   0.02506   0.01997  -0.1660  0.0009  0.7211  -9.0125   0.0000   0.2999
  14.500   2.2002   0.02745   0.02245  -0.1626  0.0009  0.7734  -9.6049   0.0000   0.2965
  15.000   2.2192   0.03018   0.02531  -0.1595  0.0009  0.8400  -10.2024   0.0000   0.2933
  15.500   2.2397   0.03317   0.02852  -0.1573  0.0008  1.0000  -10.8304   0.0000   0.2903
  16.000   2.2514   0.03668   0.03208  -0.1541  0.0008  1.0000  -11.4011   0.0000   0.2873
  16.500   2.2610   0.04046   0.03592  -0.1511  0.0008  1.0000  -11.9666   0.0000   0.2844
  17.000   2.2687   0.04467   0.04019  -0.1484  0.0008  1.0000  -12.5280   0.0000   0.2817
  17.500   2.2769   0.04910   0.04468  -0.1461  0.0007  1.0000  -13.1049   0.0000   0.2791
  18.000   2.2784   0.05454   0.05019  -0.1441  0.0007  1.0000  -13.6329   0.0000   0.2767
  18.500   2.2768   0.06055   0.05628  -0.1424  0.0007  1.0000  -14.1390   0.0000   0.2746
  19.000   2.2732   0.06696   0.06278  -0.1412  0.0006  1.0000  -14.6317   0.0000   0.2727


