XFLR5 v6.02 Beta

 Calculated polar for: WORTMANN FX 63-137

 1 1 Reynolds number fixed          Mach number fixed         

 xtrf =   1.000 (top)        1.000 (bottom)
 Mach =   0.000     Re =    30.500 e 6     Ncrit =   9.000

  alpha     CL        CD       CDp       CM    Top Xtr Bot Xtr   Cpmin    Chinge    XCp    
 ------- -------- --------- --------- -------- ------- ------- -------- --------- ---------
 -25.000  -0.4972   0.23393   0.23161  -0.0356  0.4047  0.0014  -7.4844   0.0000   0.1284
 -24.500  -0.4792   0.22953   0.22719  -0.0395  0.4016  0.0014  -7.2040   0.0000   0.1178
 -24.000  -0.4603   0.22554   0.22320  -0.0434  0.4010  0.0014  -6.8790   0.0000   0.1063
 -23.500  -0.4398   0.22221   0.21985  -0.0471  0.4008  0.0014  -6.4757   0.0000   0.0938
 -20.500  -1.1916   0.03999   0.03669  -0.1610  0.5650  0.0022  -25.7442   0.0000   0.0824
 -20.000  -1.2051   0.03289   0.02945  -0.1667  0.5439  0.0023  -25.6104   0.0000   0.0809
 -19.500  -1.2013   0.02802   0.02450  -0.1703  0.5319  0.0023  -25.1577   0.0000   0.0789
 -19.000  -1.1926   0.02362   0.02003  -0.1736  0.5309  0.0024  -24.6205   0.0000   0.0765
 -18.500  -1.1810   0.02018   0.01654  -0.1751  0.5307  0.0024  -24.0119   0.0000   0.0751
 -17.500  -1.0935   0.01508   0.01119  -0.1859  0.4655  0.0026  -22.0201   0.0000   0.0550
 -17.000  -1.0436   0.01400   0.00995  -0.1878  0.4017  0.0028  -20.9291   0.0000   0.0457
 -16.500  -0.9895   0.01304   0.00895  -0.1895  0.4007  0.0029  -19.8073   0.0000   0.0346
 -15.500  -0.8790   0.01157   0.00735  -0.1920  0.3669  0.0032  -17.6075   0.0000   0.0083
 -15.000  -0.8222   0.01097   0.00669  -0.1932  0.3575  0.0034  -16.5306   0.0000  -0.0079
 -14.500  -0.7648   0.01045   0.00612  -0.1942  0.3389  0.0035  -15.4739   0.0000  -0.0269
 -14.000  -0.7084   0.01008   0.00562  -0.1950  0.2795  0.0036  -14.4580   0.0000  -0.0482
 -13.500  -0.6498   0.00965   0.00515  -0.1960  0.2771  0.0037  -13.5110   0.0000  -0.0748
 -13.000  -0.5918   0.00932   0.00474  -0.1968  0.2469  0.0037  -12.6173   0.0000  -0.1061
 -12.500  -0.5330   0.00899   0.00436  -0.1977  0.2383  0.0038  -11.7438   0.0000  -0.1452
 -12.000  -0.4746   0.00874   0.00402  -0.1984  0.1921  0.0038  -10.9013   0.0000  -0.1934
 -11.500  -0.4143   0.00840   0.00369  -0.1995  0.2204  0.0039  -10.0663   0.0000  -0.2585
 -11.000  -0.3557   0.00821   0.00341  -0.2002  0.1830  0.0039  -9.2787   0.0000  -0.3419
 -10.500  -0.2960   0.00798   0.00315  -0.2011  0.1757  0.0040  -8.5111   0.0000  -0.4617
 -10.000  -0.2362   0.00776   0.00291  -0.2019  0.1701  0.0040  -7.7721   0.0000  -0.6428
  -9.500  -0.1763   0.00757   0.00269  -0.2028  0.1694  0.0041  -7.0635   0.0000  -0.9474
  -9.000  -0.1169   0.00744   0.00251  -0.2035  0.1476  0.0041  -6.3909   0.0000  -1.5563
  -8.500  -0.0572   0.00731   0.00233  -0.2043  0.1410  0.0041  -5.7405   0.0000  -3.4432
  -8.000   0.0025   0.00719   0.00218  -0.2050  0.1357  0.0042  -5.1192   0.0000  84.9659
  -7.500   0.0623   0.00708   0.00205  -0.2058  0.1307  0.0042  -4.5269   0.0000   3.6511
  -7.000   0.1221   0.00699   0.00193  -0.2065  0.1271  0.0043  -4.0508   0.0000   1.9879
  -6.500   0.1819   0.00691   0.00183  -0.2072  0.1241  0.0043  -3.6611   0.0000   1.4184
  -6.000   0.2415   0.00684   0.00175  -0.2079  0.1237  0.0043  -3.2865   0.0000   1.1308
  -5.500   0.3011   0.00679   0.00169  -0.2086  0.1233  0.0044  -2.9268   0.0000   0.9573
  -5.000   0.3606   0.00675   0.00164  -0.2092  0.1229  0.0044  -2.5804   0.0000   0.8412
  -4.500   0.4200   0.00673   0.00161  -0.2099  0.1222  0.0045  -2.2526   0.0000   0.7581
  -4.000   0.4783   0.00680   0.00161  -0.2103  0.1016  0.0045  -1.9421   0.0000   0.6960
  -3.500   0.5368   0.00685   0.00162  -0.2107  0.0916  0.0046  -1.6455   0.0000   0.6473
  -3.000   0.5957   0.00687   0.00163  -0.2113  0.0884  0.0057  -1.3633   0.0000   0.6081
  -2.500   0.6544   0.00690   0.00165  -0.2118  0.0855  0.0058  -1.0956   0.0000   0.5760
  -2.000   0.7129   0.00694   0.00168  -0.2122  0.0842  0.0066  -0.9564   0.0000   0.5491
  -1.500   0.7713   0.00700   0.00172  -0.2127  0.0835  0.0081  -1.0065   0.0000   0.5262
  -1.000   0.8294   0.00707   0.00179  -0.2131  0.0823  0.0094  -1.0588   0.0000   0.5066
  -0.500   0.8859   0.00728   0.00192  -0.2131  0.0596  0.0149  -1.1101   0.0000   0.4895
   0.000   0.9433   0.00740   0.00202  -0.2134  0.0514  0.0154  -1.1626   0.0000   0.4744
   0.500   1.0004   0.00753   0.00213  -0.2136  0.0491  0.0159  -1.2165   0.0000   0.4610
   1.000   1.0577   0.00763   0.00223  -0.2139  0.0509  0.0171  -1.2805   0.0000   0.4490
   1.500   1.1145   0.00776   0.00235  -0.2141  0.0505  0.0173  -1.3559   0.0000   0.4381
   2.000   1.1706   0.00794   0.00251  -0.2142  0.0473  0.0209  -1.4315   0.0000   0.4283
   2.500   1.2225   0.00849   0.00294  -0.2134  0.0032  0.0375  -1.5170   0.0000   0.4191
   3.000   1.2777   0.00871   0.00314  -0.2133  0.0024  0.0382  -1.6293   0.0000   0.4108
   3.500   1.3325   0.00895   0.00336  -0.2132  0.0019  0.0450  -1.7463   0.0000   0.4031
   4.000   1.3869   0.00920   0.00360  -0.2130  0.0023  0.0486  -1.8857   0.0000   0.3960
   5.500   1.5478   0.01005   0.00444  -0.2121  0.0013  0.1020  -2.4291   0.0000   0.3771
   6.000   1.6007   0.01035   0.00477  -0.2118  0.0012  0.1464  -2.6186   0.0000   0.3716
   6.500   1.6523   0.01070   0.00512  -0.2112  0.0012  0.1646  -2.8109   0.0000   0.3662
   7.000   1.7037   0.01105   0.00549  -0.2105  0.0012  0.1951  -3.0071   0.0000   0.3612
   7.500   1.7536   0.01145   0.00588  -0.2096  0.0012  0.2102  -3.2052   0.0000   0.3563
   8.000   1.8023   0.01188   0.00630  -0.2085  0.0012  0.2053  -3.4053   0.0000   0.3515
   8.500   1.8524   0.01228   0.00679  -0.2078  0.0012  0.3080  -3.6121   0.0000   0.3471
   9.000   1.8990   0.01276   0.00728  -0.2064  0.0012  0.3297  -3.8667   0.0000   0.3427
  10.000   1.9898   0.01379   0.00845  -0.2033  0.0011  0.4610  -4.7284   0.0000   0.3342
  10.500   2.0204   0.01443   0.00910  -0.1987  0.0011  0.4684  -5.2392   0.0000   0.3295
  11.000   2.0510   0.01517   0.00986  -0.1943  0.0011  0.4879  -5.7711   0.0000   0.3249
  11.500   2.0814   0.01603   0.01075  -0.1901  0.0011  0.5000  -6.3274   0.0000   0.3205
  12.000   2.1107   0.01702   0.01178  -0.1860  0.0010  0.5292  -6.8970   0.0000   0.3162
  12.500   2.1378   0.01817   0.01297  -0.1817  0.0010  0.5377  -7.4743   0.0000   0.3120
  13.000   2.1648   0.01949   0.01433  -0.1777  0.0010  0.5648  -8.0689   0.0000   0.3081
  13.500   2.1900   0.02103   0.01594  -0.1738  0.0009  0.6124  -8.6702   0.0000   0.3042
  14.000   2.2104   0.02288   0.01786  -0.1695  0.0009  0.6499  -9.2553   0.0000   0.3004
  14.500   2.2307   0.02501   0.02007  -0.1657  0.0009  0.6894  -9.8558   0.0000   0.2969
  15.000   2.2494   0.02742   0.02254  -0.1621  0.0009  0.7172  -10.4606   0.0000   0.2934
  15.500   2.2665   0.03018   0.02538  -0.1587  0.0008  0.7591  -11.0680   0.0000   0.2902
  16.000   2.2830   0.03327   0.02858  -0.1559  0.0008  0.8218  -11.6871   0.0000   0.2872
  16.500   2.3017   0.03680   0.03235  -0.1542  0.0008  1.0000  -12.3399   0.0000   0.2845
  17.000   2.3094   0.04072   0.03633  -0.1511  0.0007  1.0000  -12.9120   0.0000   0.2817
  18.000   2.2512   0.05809   0.05404  -0.1433  0.0011  1.0000  -13.3440   0.0000   0.2771
  18.500   2.2486   0.06432   0.06039  -0.1418  0.0016  1.0000  -13.8159   0.0000   0.2751
  19.000   2.2470   0.07066   0.06680  -0.1409  0.0019  1.0000  -14.3521   0.0000   0.2733
  19.500   2.2377   0.07810   0.07434  -0.1404  0.0021  1.0000  -14.7892   0.0000   0.2718


