XFLR5 v6.02 Beta

 Calculated polar for: WORTMANN FX 63-137

 1 1 Reynolds number fixed          Mach number fixed         

 xtrf =   1.000 (top)        1.000 (bottom)
 Mach =   0.000     Re =    10.500 e 6     Ncrit =   9.000

  alpha     CL        CD       CDp       CM    Top Xtr Bot Xtr   Cpmin    Chinge    XCp    
 ------- -------- --------- --------- -------- ------- ------- -------- --------- ---------
 -17.500  -0.9778   0.03060   0.02736  -0.1649  0.7308  0.0035  -19.7710   0.0000   0.0541
 -17.000  -0.9684   0.02572   0.02237  -0.1692  0.7203  0.0036  -19.3057   0.0000   0.0495
 -16.000  -0.9202   0.01905   0.01542  -0.1761  0.6742  0.0037  -17.9519   0.0000   0.0349
 -14.500  -0.7637   0.01410   0.01006  -0.1876  0.5967  0.0039  -15.0032   0.0000  -0.0185
 -13.500  -0.5576   0.03375   0.03069  -0.1591  0.4311  0.0040  -11.1842   0.0000  -0.0617
 -12.500  -0.1857   0.08521   0.08210  -0.1200  0.2787  0.0044  -4.8753   0.0000  -0.4552
 -11.500  -0.4281   0.01035   0.00551  -0.1946  0.3994  0.0042  -9.4744   0.0000  -0.2305
 -11.000  -0.3701   0.00996   0.00499  -0.1956  0.3650  0.0043  -8.6433   0.0000  -0.3063
 -10.500  -0.3112   0.00957   0.00452  -0.1966  0.3413  0.0044  -7.8312   0.0000  -0.4127
  -3.500   0.5204   0.00786   0.00187  -0.2070  0.1356  0.0059  -1.6658   0.0000   0.6527
  -3.000   0.5793   0.00787   0.00189  -0.2076  0.1245  0.0098  -1.3955   0.0000   0.6119
  -2.500   0.6382   0.00788   0.00189  -0.2082  0.1226  0.0145  -1.1246   0.0000   0.5786
  -2.000   0.6953   0.00805   0.00197  -0.2084  0.1024  0.0145  -0.9453   0.0000   0.5511
  -1.500   0.7531   0.00814   0.00203  -0.2087  0.0988  0.0152  -0.9940   0.0000   0.5277
  -1.000   0.8106   0.00825   0.00211  -0.2090  0.0930  0.0157  -1.0456   0.0000   0.5075
  -0.500   0.8682   0.00835   0.00219  -0.2093  0.0884  0.0160  -1.0977   0.0000   0.4900
   0.000   0.9255   0.00846   0.00229  -0.2096  0.0843  0.0162  -1.1501   0.0000   0.4746
   0.500   0.9826   0.00858   0.00241  -0.2099  0.0835  0.0165  -1.2028   0.0000   0.4610
   1.500   1.0962   0.00884   0.00266  -0.2103  0.0835  0.0203  -1.3391   0.0000   0.4378
   2.000   1.1526   0.00898   0.00283  -0.2104  0.0827  0.0351  -1.4147   0.0000   0.4279
   2.500   1.2035   0.00958   0.00326  -0.2095  0.0402  0.0384  -1.4977   0.0000   0.4187
   3.500   1.3132   0.01004   0.00371  -0.2093  0.0363  0.0667  -1.7209   0.0000   0.4025
   4.000   1.3645   0.01051   0.00410  -0.2085  0.0221  0.0710  -1.8428   0.0000   0.3952
   5.000   1.4669   0.01141   0.00497  -0.2070  0.0037  0.1141  -2.1931   0.0000   0.3820
   5.500   1.5189   0.01177   0.00537  -0.2065  0.0028  0.1612  -2.3748   0.0000   0.3761
   6.000   1.5735   0.01204   0.00583  -0.2067  0.0015  0.3089  -2.5646   0.0000   0.3707
   6.500   1.6247   0.01243   0.00628  -0.2061  0.0013  0.3688  -2.7541   0.0000   0.3653
   7.000   1.6739   0.01287   0.00676  -0.2051  0.0013  0.4016  -2.9446   0.0000   0.3602
   7.500   1.7237   0.01331   0.00731  -0.2044  0.0013  0.4894  -3.1404   0.0000   0.3553
   8.000   1.7682   0.01388   0.00784  -0.2025  0.0013  0.4718  -3.3307   0.0000   0.3504
   8.500   1.8124   0.01445   0.00845  -0.2006  0.0012  0.5050  -3.5240   0.0000   0.3457
   9.000   1.8475   0.01509   0.00912  -0.1969  0.0012  0.5238  -3.7200   0.0000   0.3407
   9.500   1.8809   0.01582   0.00989  -0.1930  0.0012  0.5498  -3.9587   0.0000   0.3358
  10.000   1.9132   0.01666   0.01078  -0.1891  0.0012  0.5797  -4.2803   0.0000   0.3311
  10.500   1.9456   0.01763   0.01184  -0.1855  0.0011  0.6277  -4.7745   0.0000   0.3266
  11.000   1.9745   0.01877   0.01304  -0.1814  0.0011  0.6594  -5.2702   0.0000   0.3222
  11.500   2.0025   0.02009   0.01443  -0.1775  0.0011  0.6915  -5.7795   0.0000   0.3179
  12.000   2.0287   0.02162   0.01603  -0.1737  0.0011  0.7188  -6.2954   0.0000   0.3138
  12.500   2.0524   0.02342   0.01792  -0.1698  0.0011  0.7624  -6.8110   0.0000   0.3099
  13.000   2.0759   0.02542   0.02005  -0.1664  0.0010  0.8269  -7.3942   0.0000   0.3062
  13.500   2.0992   0.02767   0.02256  -0.1635  0.0009  1.0000  -7.9554   0.0000   0.3028
  14.000   2.1161   0.03042   0.02536  -0.1599  0.0009  1.0000  -8.4886   0.0000   0.2993
  14.500   2.1315   0.03347   0.02847  -0.1566  0.0009  1.0000  -9.0258   0.0000   0.2960
  15.000   2.1442   0.03694   0.03199  -0.1534  0.0009  1.0000  -9.5566   0.0000   0.2929
  15.500   2.1547   0.04071   0.03584  -0.1505  0.0009  1.0000  -10.0794   0.0000   0.2900
  16.000   2.1623   0.04498   0.04018  -0.1478  0.0008  1.0000  -10.5943   0.0000   0.2872
  16.500   2.1719   0.04930   0.04458  -0.1455  0.0008  1.0000  -11.1370   0.0000   0.2845
  17.000   2.1750   0.05462   0.04998  -0.1435  0.0008  1.0000  -11.6344   0.0000   0.2822
  17.500   2.1755   0.06047   0.05592  -0.1419  0.0008  1.0000  -12.1172   0.0000   0.2801
  18.000   2.1740   0.06671   0.06226  -0.1407  0.0007  1.0000  -12.5893   0.0000   0.2781
  18.500   2.1705   0.07334   0.06899  -0.1399  0.0007  1.0000  -13.0501   0.0000   0.2764
  19.000   2.1709   0.07935   0.07509  -0.1393  0.0007  1.0000  -13.5540   0.0000   0.2747
  19.500   2.1586   0.08716   0.08302  -0.1392  0.0007  1.0000  -13.9373   0.0000   0.2735
  20.000   2.1454   0.09552   0.09150  -0.1399  0.0007  1.0000  -14.3081   0.0000   0.2727


